*SPEF "ieee 1481-1999"
*DESIGN "cordic_system"
*DATE "19:39:29 Saturday June 28, 2025"
*VENDOR "The OpenROAD Project"
*PROGRAM "OpenROAD"
*VERSION "edf00dff99f6c40d67a30c0e22a8191c5d2ed9d6"
*DESIGN_FLOW "NAME_SCOPE LOCAL" "PIN_CAP NONE"
*DIVIDER /
*DELIMITER :
*BUS_DELIMITER []
*T_UNIT 1 NS
*C_UNIT 1 PF
*R_UNIT 1 OHM
*L_UNIT 1 HENRY

*NAME_MAP
*3 aclk
*4 araddr[0]
*5 araddr[10]
*6 araddr[11]
*7 araddr[12]
*8 araddr[13]
*9 araddr[14]
*10 araddr[15]
*11 araddr[16]
*12 araddr[17]
*13 araddr[18]
*14 araddr[19]
*15 araddr[1]
*16 araddr[20]
*17 araddr[21]
*18 araddr[22]
*19 araddr[23]
*20 araddr[24]
*21 araddr[25]
*22 araddr[26]
*23 araddr[27]
*24 araddr[28]
*25 araddr[29]
*26 araddr[2]
*27 araddr[30]
*28 araddr[31]
*29 araddr[3]
*30 araddr[4]
*31 araddr[5]
*32 araddr[6]
*33 araddr[7]
*34 araddr[8]
*35 araddr[9]
*36 aresetn
*37 arready
*38 arvalid
*39 awaddr[0]
*40 awaddr[10]
*41 awaddr[11]
*42 awaddr[12]
*43 awaddr[13]
*44 awaddr[14]
*45 awaddr[15]
*46 awaddr[16]
*47 awaddr[17]
*48 awaddr[18]
*49 awaddr[19]
*50 awaddr[1]
*51 awaddr[20]
*52 awaddr[21]
*53 awaddr[22]
*54 awaddr[23]
*55 awaddr[24]
*56 awaddr[25]
*57 awaddr[26]
*58 awaddr[27]
*59 awaddr[28]
*60 awaddr[29]
*61 awaddr[2]
*62 awaddr[30]
*63 awaddr[31]
*64 awaddr[3]
*65 awaddr[4]
*66 awaddr[5]
*67 awaddr[6]
*68 awaddr[7]
*69 awaddr[8]
*70 awaddr[9]
*71 awready
*72 awvalid
*73 bready
*74 net409
*75 bresp[1]
*76 bvalid
*77 rdata[0]
*78 rdata[10]
*79 rdata[11]
*80 rdata[12]
*81 rdata[13]
*82 rdata[14]
*83 rdata[15]
*84 rdata[16]
*85 rdata[17]
*86 rdata[18]
*87 rdata[19]
*88 rdata[1]
*89 rdata[20]
*90 rdata[21]
*91 rdata[22]
*92 rdata[23]
*93 rdata[24]
*94 rdata[25]
*95 rdata[26]
*96 rdata[27]
*97 rdata[28]
*98 rdata[29]
*99 rdata[2]
*100 rdata[30]
*101 rdata[31]
*102 rdata[3]
*103 rdata[4]
*104 rdata[5]
*105 rdata[6]
*106 rdata[7]
*107 rdata[8]
*108 rdata[9]
*109 rready
*110 net410
*111 rresp[1]
*112 rvalid
*113 wdata[0]
*114 wdata[10]
*115 wdata[11]
*116 wdata[12]
*117 wdata[13]
*118 wdata[14]
*119 wdata[15]
*120 wdata[16]
*121 wdata[17]
*122 wdata[18]
*123 wdata[19]
*124 wdata[1]
*125 wdata[20]
*126 wdata[21]
*127 wdata[22]
*128 wdata[23]
*129 wdata[24]
*130 wdata[25]
*131 wdata[26]
*132 wdata[27]
*133 wdata[28]
*134 wdata[29]
*135 wdata[2]
*136 wdata[30]
*137 wdata[31]
*138 wdata[3]
*139 wdata[4]
*140 wdata[5]
*141 wdata[6]
*142 wdata[7]
*143 wdata[8]
*144 wdata[9]
*145 wready
*146 wstrb[0]
*147 wstrb[1]
*148 wstrb[2]
*149 wstrb[3]
*150 wvalid
*151 _0000_
*152 _0001_
*153 _0002_
*154 _0003_
*155 _0004_
*156 _0005_
*157 _0006_
*158 _0007_
*159 _0008_
*160 _0009_
*161 _0010_
*162 _0011_
*163 _0012_
*164 _0013_
*165 _0014_
*166 _0015_
*167 _0016_
*168 _0017_
*169 _0018_
*170 _0019_
*171 _0020_
*172 _0021_
*173 _0022_
*174 _0023_
*175 _0024_
*176 _0025_
*177 _0026_
*178 _0027_
*179 _0028_
*180 _0029_
*181 _0030_
*182 _0031_
*183 _0032_
*184 _0033_
*185 _0034_
*186 _0035_
*187 _0036_
*188 _0037_
*189 _0038_
*190 _0039_
*191 _0040_
*192 _0041_
*193 _0042_
*194 _0043_
*195 _0044_
*196 _0045_
*197 _0046_
*198 _0047_
*199 _0048_
*200 _0049_
*201 _0050_
*202 _0051_
*203 _0052_
*204 _0053_
*205 _0054_
*206 _0055_
*207 _0056_
*208 _0057_
*209 _0058_
*210 _0059_
*211 _0060_
*212 _0061_
*213 _0062_
*214 _0063_
*215 _0064_
*216 _0065_
*217 _0066_
*218 _0067_
*219 _0068_
*220 _0069_
*221 _0070_
*222 _0071_
*223 _0072_
*224 _0073_
*225 _0074_
*226 _0075_
*227 _0076_
*228 _0077_
*229 _0078_
*230 _0079_
*231 _0080_
*232 _0081_
*233 _0082_
*234 _0083_
*235 _0084_
*236 _0085_
*237 _0086_
*238 _0087_
*239 _0088_
*240 _0089_
*241 _0090_
*242 _0091_
*243 _0092_
*244 _0093_
*245 _0094_
*246 _0095_
*247 _0096_
*248 _0097_
*249 _0098_
*250 _0099_
*251 _0100_
*252 _0101_
*253 _0102_
*254 _0103_
*255 _0104_
*256 _0105_
*257 _0106_
*258 _0107_
*259 _0108_
*260 _0109_
*261 _0110_
*262 _0111_
*263 _0112_
*264 _0113_
*265 _0114_
*266 _0115_
*267 _0116_
*268 _0117_
*269 _0118_
*270 _0119_
*271 _0120_
*272 _0121_
*273 _0122_
*274 _0123_
*275 _0124_
*276 _0125_
*277 _0126_
*278 _0127_
*279 _0128_
*280 _0129_
*281 _0130_
*282 _0131_
*283 _0132_
*284 _0133_
*285 _0134_
*286 _0135_
*287 _0136_
*288 _0137_
*289 _0138_
*290 _0139_
*291 _0140_
*292 _0141_
*293 _0142_
*294 _0143_
*295 _0144_
*296 _0145_
*297 _0146_
*298 _0147_
*299 _0148_
*300 _0149_
*301 _0150_
*302 _0151_
*303 _0152_
*304 _0153_
*305 _0154_
*306 _0155_
*307 _0156_
*308 _0157_
*309 _0158_
*310 _0159_
*311 _0160_
*312 _0161_
*313 _0162_
*314 _0163_
*315 _0164_
*316 _0165_
*317 _0166_
*318 _0167_
*319 _0168_
*320 _0169_
*321 _0170_
*322 _0171_
*323 _0172_
*324 _0173_
*325 _0174_
*326 _0175_
*327 _0176_
*328 _0177_
*329 _0178_
*330 _0179_
*331 _0180_
*332 _0181_
*333 _0182_
*334 _0183_
*335 _0184_
*336 _0185_
*337 _0186_
*338 _0187_
*339 _0188_
*340 _0189_
*341 _0190_
*342 _0191_
*343 _0192_
*344 _0193_
*345 _0194_
*346 _0195_
*347 _0196_
*348 _0197_
*349 _0198_
*350 _0199_
*351 _0200_
*352 _0201_
*353 _0202_
*354 _0203_
*355 _0204_
*356 _0205_
*357 _0206_
*358 _0207_
*359 _0208_
*360 _0209_
*361 _0210_
*362 _0211_
*363 _0212_
*364 _0213_
*365 _0214_
*366 _0215_
*367 _0216_
*368 _0217_
*369 _0218_
*370 _0219_
*371 _0220_
*372 _0221_
*373 _0222_
*374 _0223_
*375 _0224_
*376 _0225_
*377 _0226_
*378 _0227_
*379 _0228_
*380 _0229_
*381 _0230_
*382 _0231_
*383 _0232_
*384 _0233_
*385 _0234_
*386 _0235_
*387 _0236_
*388 _0237_
*389 _0238_
*390 _0239_
*391 _0240_
*392 _0241_
*393 _0242_
*394 _0243_
*395 _0244_
*396 _0245_
*397 _0246_
*398 _0247_
*399 _0248_
*400 _0249_
*401 _0250_
*402 _0251_
*403 _0252_
*404 _0253_
*405 _0254_
*406 _0255_
*407 _0256_
*408 _0257_
*409 _0258_
*410 _0259_
*411 _0260_
*412 _0261_
*413 _0262_
*414 _0263_
*415 _0264_
*416 _0265_
*417 _0266_
*418 _0267_
*419 _0268_
*420 _0269_
*421 _0270_
*422 _0271_
*423 _0272_
*424 _0273_
*425 _0274_
*426 _0275_
*427 _0276_
*428 _0277_
*429 _0278_
*430 _0279_
*431 _0280_
*432 _0281_
*433 _0282_
*434 _0283_
*435 _0284_
*436 _0285_
*437 _0286_
*438 _0287_
*439 _0288_
*440 _0289_
*441 _0290_
*442 _0291_
*443 _0292_
*444 _0293_
*445 _0294_
*446 _0295_
*447 _0296_
*448 _0297_
*449 _0298_
*450 _0299_
*451 _0300_
*452 _0301_
*453 _0302_
*454 _0303_
*455 _0304_
*456 _0305_
*457 _0306_
*458 _0307_
*459 _0308_
*460 _0309_
*461 _0310_
*462 _0311_
*463 _0312_
*464 _0313_
*465 _0314_
*466 _0315_
*467 _0316_
*468 _0317_
*469 _0318_
*470 _0319_
*471 _0320_
*472 _0321_
*473 _0322_
*474 _0323_
*475 _0324_
*476 _0325_
*477 _0326_
*478 _0327_
*479 _0328_
*480 _0329_
*481 _0330_
*482 _0331_
*483 _0332_
*484 _0333_
*485 _0334_
*486 _0335_
*487 _0336_
*488 _0337_
*489 _0338_
*490 _0339_
*491 _0340_
*492 _0341_
*493 _0342_
*494 _0343_
*495 _0344_
*496 _0345_
*497 _0346_
*498 _0347_
*499 _0348_
*500 _0349_
*501 _0350_
*502 _0351_
*503 _0352_
*504 _0353_
*505 _0354_
*506 _0355_
*507 _0356_
*508 _0357_
*509 _0358_
*510 _0359_
*511 _0360_
*512 _0361_
*513 _0362_
*514 _0363_
*515 _0364_
*516 _0365_
*517 _0366_
*518 _0367_
*519 _0368_
*520 _0369_
*521 _0370_
*522 _0371_
*523 _0372_
*524 _0373_
*525 _0374_
*526 _0375_
*527 _0376_
*528 _0377_
*529 _0378_
*530 _0379_
*531 _0380_
*532 _0381_
*533 _0382_
*534 _0383_
*535 _0384_
*536 _0385_
*537 _0386_
*538 _0387_
*539 _0388_
*540 _0389_
*541 _0390_
*542 _0391_
*543 _0392_
*544 _0393_
*545 _0394_
*546 _0395_
*547 _0396_
*548 _0397_
*549 _0398_
*550 _0399_
*551 _0400_
*552 _0401_
*553 _0402_
*554 _0403_
*555 _0404_
*556 _0405_
*557 _0406_
*558 _0407_
*559 _0408_
*560 _0409_
*561 _0410_
*562 _0411_
*563 _0412_
*564 _0413_
*565 _0414_
*566 _0415_
*567 _0416_
*568 _0417_
*569 _0418_
*570 _0419_
*571 _0420_
*572 _0421_
*573 _0422_
*574 _0423_
*575 _0424_
*576 _0425_
*577 _0426_
*578 _0427_
*579 _0428_
*580 _0429_
*581 _0430_
*582 _0431_
*583 _0432_
*584 _0433_
*585 _0434_
*586 _0435_
*587 _0436_
*588 _0437_
*589 _0438_
*590 _0439_
*591 _0440_
*592 _0441_
*593 _0442_
*594 _0443_
*595 _0444_
*596 _0445_
*597 _0446_
*598 _0447_
*599 _0448_
*600 _0449_
*601 _0450_
*602 _0451_
*603 _0452_
*604 _0453_
*605 _0454_
*606 _0455_
*607 _0456_
*608 _0457_
*609 _0458_
*610 _0459_
*611 _0460_
*612 _0461_
*613 _0462_
*614 _0463_
*615 _0464_
*616 _0465_
*617 _0466_
*618 _0467_
*619 _0468_
*620 _0469_
*621 _0470_
*622 _0471_
*623 _0472_
*624 _0473_
*625 _0474_
*626 _0475_
*627 _0476_
*628 _0477_
*629 _0478_
*630 _0479_
*631 _0480_
*632 _0481_
*633 _0482_
*634 _0483_
*635 _0484_
*636 _0485_
*637 _0486_
*638 _0487_
*639 _0488_
*640 _0489_
*641 _0490_
*642 _0491_
*643 _0492_
*644 _0493_
*645 _0494_
*646 _0495_
*647 _0496_
*648 _0497_
*649 _0498_
*650 _0499_
*651 _0500_
*652 _0501_
*653 _0502_
*654 _0503_
*655 _0504_
*656 _0505_
*657 _0506_
*658 _0507_
*659 _0508_
*660 _0509_
*661 _0510_
*662 _0511_
*663 _0512_
*664 _0513_
*665 _0514_
*666 _0515_
*667 _0516_
*668 _0517_
*669 _0518_
*670 _0519_
*671 _0520_
*672 _0521_
*673 _0522_
*674 _0523_
*675 _0524_
*676 _0525_
*677 _0526_
*678 _0527_
*679 _0528_
*680 _0529_
*681 _0530_
*682 _0531_
*683 _0532_
*684 _0533_
*685 _0534_
*686 _0535_
*687 _0536_
*688 _0537_
*689 _0538_
*690 _0539_
*691 _0540_
*692 _0541_
*693 _0542_
*694 _0543_
*695 _0544_
*696 _0545_
*697 _0546_
*698 _0547_
*699 _0548_
*700 _0549_
*701 _0550_
*702 _0551_
*703 _0552_
*704 _0553_
*705 _0554_
*706 _0555_
*707 _0556_
*708 _0557_
*709 _0558_
*710 _0559_
*711 _0560_
*712 _0561_
*713 _0562_
*714 _0563_
*715 _0564_
*716 _0565_
*717 _0566_
*718 _0567_
*719 _0568_
*720 _0569_
*721 _0570_
*722 _0571_
*723 _0572_
*724 _0573_
*725 _0574_
*726 _0575_
*727 _0576_
*728 _0577_
*729 _0578_
*730 _0579_
*731 _0580_
*732 _0581_
*733 _0582_
*734 _0583_
*735 _0584_
*736 _0585_
*737 _0586_
*738 _0587_
*739 _0588_
*740 _0589_
*741 _0590_
*742 _0591_
*743 _0592_
*744 _0593_
*745 _0594_
*746 _0595_
*747 _0596_
*748 _0597_
*749 _0598_
*750 _0599_
*751 _0600_
*752 _0601_
*753 _0602_
*754 _0603_
*755 _0604_
*756 _0605_
*757 _0606_
*758 _0607_
*759 _0608_
*760 _0609_
*761 _0610_
*762 _0611_
*763 _0612_
*764 _0613_
*765 _0614_
*766 _0615_
*767 _0616_
*768 _0617_
*769 _0618_
*770 _0619_
*771 _0620_
*772 _0621_
*773 _0622_
*774 _0623_
*775 _0624_
*776 _0625_
*777 _0626_
*778 _0627_
*779 _0628_
*780 _0629_
*781 _0630_
*782 _0631_
*783 _0632_
*784 _0633_
*785 _0634_
*786 _0635_
*787 _0636_
*788 _0637_
*789 _0638_
*790 _0639_
*791 _0640_
*792 _0641_
*793 _0642_
*794 _0643_
*795 _0644_
*796 _0645_
*797 _0646_
*798 _0647_
*799 _0648_
*800 _0649_
*801 _0650_
*802 _0651_
*803 _0652_
*804 _0653_
*805 _0654_
*806 _0655_
*807 _0656_
*808 _0657_
*809 _0658_
*810 _0659_
*811 _0660_
*812 _0661_
*813 _0662_
*814 _0663_
*815 _0664_
*816 _0665_
*817 _0666_
*818 _0667_
*819 _0668_
*820 _0669_
*821 _0670_
*822 _0671_
*823 _0672_
*824 _0673_
*825 _0674_
*826 _0675_
*827 _0676_
*828 _0677_
*829 _0678_
*830 _0679_
*831 _0680_
*832 _0681_
*833 _0682_
*834 _0683_
*835 _0684_
*836 _0685_
*837 _0686_
*838 _0687_
*839 _0688_
*840 _0689_
*841 _0690_
*842 _0691_
*843 _0692_
*844 _0693_
*845 _0694_
*846 _0695_
*847 _0696_
*848 _0697_
*849 _0698_
*850 _0699_
*851 _0700_
*852 _0701_
*853 _0702_
*854 _0703_
*855 _0704_
*856 _0705_
*857 _0706_
*858 _0707_
*859 _0708_
*860 _0709_
*861 _0710_
*862 _0711_
*863 _0712_
*864 _0713_
*865 _0714_
*866 _0715_
*867 _0716_
*868 _0717_
*869 _0718_
*870 _0719_
*871 _0720_
*872 _0721_
*873 _0722_
*874 _0723_
*875 _0724_
*876 _0725_
*877 _0726_
*878 _0727_
*879 _0728_
*880 _0729_
*881 _0730_
*882 _0731_
*883 _0732_
*884 _0733_
*885 _0734_
*886 _0735_
*887 _0736_
*888 _0737_
*889 _0738_
*890 _0739_
*891 _0740_
*892 _0741_
*893 _0742_
*894 _0743_
*895 _0744_
*896 _0745_
*897 _0746_
*898 _0747_
*899 _0748_
*900 _0749_
*901 _0750_
*902 _0751_
*903 _0752_
*904 _0753_
*905 _0754_
*906 _0755_
*907 _0756_
*908 _0757_
*909 _0758_
*910 _0759_
*911 _0760_
*912 _0761_
*913 _0762_
*914 _0763_
*915 _0764_
*916 _0765_
*917 _0766_
*918 _0767_
*919 _0768_
*920 _0769_
*921 _0770_
*922 _0771_
*923 _0772_
*924 _0773_
*925 _0774_
*926 _0775_
*927 _0776_
*928 _0777_
*929 _0778_
*930 _0779_
*931 _0780_
*932 _0781_
*933 _0782_
*934 _0783_
*935 _0784_
*936 _0785_
*937 _0786_
*938 _0787_
*939 _0788_
*940 _0789_
*941 _0790_
*942 _0791_
*943 _0792_
*944 _0793_
*945 _0794_
*946 _0795_
*947 _0796_
*948 _0797_
*949 _0798_
*950 _0799_
*951 _0800_
*952 _0801_
*953 _0802_
*954 _0803_
*955 _0804_
*956 _0805_
*957 _0806_
*958 _0807_
*959 _0808_
*960 _0809_
*961 _0810_
*962 _0811_
*963 _0812_
*964 _0813_
*965 _0814_
*966 _0815_
*967 _0816_
*968 _0817_
*969 _0818_
*970 _0819_
*971 _0820_
*972 _0821_
*973 _0822_
*974 _0823_
*975 _0824_
*976 _0825_
*977 _0826_
*978 _0827_
*979 _0828_
*980 _0829_
*981 _0830_
*982 _0831_
*983 _0832_
*984 _0833_
*985 _0834_
*986 _0835_
*987 _0836_
*988 _0837_
*989 _0838_
*990 _0839_
*991 _0840_
*992 _0841_
*993 _0842_
*994 _0843_
*995 _0844_
*996 _0845_
*997 _0846_
*998 _0847_
*999 _0848_
*1000 _0849_
*1001 _0850_
*1002 _0851_
*1003 _0852_
*1004 _0853_
*1005 _0854_
*1006 _0855_
*1007 _0856_
*1008 _0857_
*1009 _0858_
*1010 _0859_
*1011 _0860_
*1012 _0861_
*1013 _0862_
*1014 _0863_
*1015 _0864_
*1016 _0865_
*1017 _0866_
*1018 _0867_
*1019 _0868_
*1020 _0869_
*1021 _0870_
*1022 _0871_
*1023 _0872_
*1024 _0873_
*1025 _0874_
*1026 _0875_
*1027 _0876_
*1028 _0877_
*1029 _0878_
*1030 _0879_
*1031 _0880_
*1032 _0881_
*1033 _0882_
*1034 _0883_
*1035 _0884_
*1036 _0885_
*1037 _0886_
*1038 _0887_
*1039 _0888_
*1040 _0889_
*1041 _0890_
*1042 _0891_
*1043 _0892_
*1044 _0893_
*1045 _0894_
*1046 _0895_
*1047 _0896_
*1048 _0897_
*1049 _0898_
*1050 _0899_
*1051 _0900_
*1052 _0901_
*1053 _0902_
*1054 _0903_
*1055 _0904_
*1056 _0905_
*1057 _0906_
*1058 _0907_
*1059 _0908_
*1060 _0909_
*1061 _0910_
*1062 _0911_
*1063 _0912_
*1064 _0913_
*1065 _0914_
*1066 _0915_
*1067 _0916_
*1068 _0917_
*1069 _0918_
*1070 _0919_
*1071 _0920_
*1072 _0921_
*1073 _0922_
*1074 _0923_
*1075 _0924_
*1076 _0925_
*1077 _0926_
*1078 _0927_
*1079 _0928_
*1080 _0929_
*1081 _0930_
*1082 _0931_
*1083 _0932_
*1084 _0933_
*1085 _0934_
*1086 _0935_
*1087 _0936_
*1088 _0937_
*1089 _0938_
*1090 _0939_
*1091 _0940_
*1092 _0941_
*1093 _0942_
*1094 _0943_
*1095 _0944_
*1096 _0945_
*1097 _0946_
*1098 _0947_
*1099 _0948_
*1100 _0949_
*1101 _0950_
*1102 _0951_
*1103 _0952_
*1104 _0953_
*1105 _0954_
*1106 _0955_
*1107 _0956_
*1108 _0957_
*1109 _0958_
*1110 _0959_
*1111 _0960_
*1112 _0961_
*1113 _0962_
*1114 _0963_
*1115 _0964_
*1116 _0965_
*1117 _0966_
*1118 _0967_
*1119 _0968_
*1120 _0969_
*1121 _0970_
*1122 _0971_
*1123 _0972_
*1124 _0973_
*1125 _0974_
*1126 _0975_
*1127 _0976_
*1128 _0977_
*1129 _0978_
*1130 _0979_
*1131 _0980_
*1132 _0981_
*1133 _0982_
*1134 _0983_
*1135 _0984_
*1136 _0985_
*1137 _0986_
*1138 _0987_
*1139 _0988_
*1140 _0989_
*1141 _0990_
*1142 _0991_
*1143 _0992_
*1144 _0993_
*1145 _0994_
*1146 _0995_
*1147 _0996_
*1148 _0997_
*1149 _0998_
*1150 _0999_
*1151 _1000_
*1152 _1001_
*1153 _1002_
*1154 _1003_
*1155 _1004_
*1156 _1005_
*1157 _1006_
*1158 _1007_
*1159 _1008_
*1160 _1009_
*1161 _1010_
*1162 _1011_
*1163 _1012_
*1164 _1013_
*1165 _1014_
*1166 _1015_
*1167 _1016_
*1168 _1017_
*1169 _1018_
*1170 _1019_
*1171 _1020_
*1172 _1021_
*1173 _1022_
*1174 _1023_
*1175 _1024_
*1176 _1025_
*1177 _1026_
*1178 _1027_
*1179 _1028_
*1180 _1029_
*1181 _1030_
*1182 _1031_
*1183 _1032_
*1184 _1033_
*1185 _1034_
*1186 _1035_
*1187 _1036_
*1188 _1037_
*1189 _1038_
*1190 _1039_
*1191 _1040_
*1192 _1041_
*1193 _1042_
*1194 _1043_
*1195 _1044_
*1196 _1045_
*1197 _1046_
*1198 _1047_
*1199 _1048_
*1200 _1049_
*1201 _1050_
*1202 _1051_
*1203 _1052_
*1204 _1053_
*1205 _1054_
*1206 _1055_
*1207 _1056_
*1208 _1057_
*1209 _1058_
*1210 _1059_
*1211 _1060_
*1212 _1061_
*1213 _1062_
*1214 _1063_
*1215 _1064_
*1216 _1065_
*1217 _1066_
*1218 _1067_
*1219 _1068_
*1220 _1069_
*1221 _1070_
*1222 _1071_
*1223 _1072_
*1224 _1073_
*1225 _1074_
*1226 _1075_
*1227 _1076_
*1228 _1077_
*1229 _1078_
*1230 _1079_
*1231 _1080_
*1232 _1081_
*1233 _1082_
*1234 _1083_
*1235 _1084_
*1236 _1085_
*1237 _1086_
*1238 _1087_
*1239 _1088_
*1240 _1089_
*1241 _1090_
*1242 _1091_
*1243 _1092_
*1244 _1093_
*1245 _1094_
*1246 _1095_
*1247 _1096_
*1248 _1097_
*1249 _1098_
*1250 _1099_
*1251 _1100_
*1252 _1101_
*1253 _1102_
*1254 _1103_
*1255 _1104_
*1256 _1105_
*1257 _1106_
*1258 _1107_
*1259 _1108_
*1260 _1109_
*1261 _1110_
*1262 _1111_
*1263 _1112_
*1264 _1113_
*1265 _1114_
*1266 _1115_
*1267 _1116_
*1268 _1117_
*1269 _1118_
*1270 _1119_
*1271 _1120_
*1272 _1121_
*1273 _1122_
*1274 _1123_
*1275 _1124_
*1276 _1125_
*1277 _1126_
*1278 _1127_
*1279 _1128_
*1280 _1129_
*1281 _1130_
*1282 _1131_
*1283 _1132_
*1284 _1133_
*1285 _1134_
*1286 _1135_
*1287 _1136_
*1288 _1137_
*1289 _1138_
*1290 _1139_
*1291 _1140_
*1292 _1141_
*1293 _1142_
*1294 _1143_
*1295 _1144_
*1296 _1145_
*1297 _1146_
*1298 _1147_
*1299 _1148_
*1300 _1149_
*1301 _1150_
*1302 _1151_
*1303 _1152_
*1304 _1153_
*1305 _1154_
*1306 _1155_
*1307 _1156_
*1308 _1157_
*1309 _1158_
*1310 _1159_
*1311 _1160_
*1312 _1161_
*1313 _1162_
*1314 _1163_
*1315 _1164_
*1316 _1165_
*1317 _1166_
*1318 _1167_
*1319 _1168_
*1320 _1169_
*1321 _1170_
*1322 _1171_
*1323 _1172_
*1324 _1173_
*1325 _1174_
*1326 _1175_
*1327 _1176_
*1328 _1177_
*1329 _1178_
*1330 _1179_
*1331 _1180_
*1332 _1181_
*1333 _1182_
*1334 _1183_
*1335 _1184_
*1336 _1185_
*1337 _1186_
*1338 _1187_
*1339 _1188_
*1340 _1189_
*1341 _1190_
*1342 _1191_
*1343 _1192_
*1344 _1193_
*1345 _1194_
*1346 _1195_
*1347 _1196_
*1348 _1197_
*1349 _1198_
*1350 _1199_
*1351 _1200_
*1352 _1201_
*1353 _1202_
*1354 _1203_
*1355 _1204_
*1356 _1205_
*1357 _1206_
*1358 _1207_
*1359 _1208_
*1360 _1209_
*1361 _1210_
*1362 _1211_
*1363 _1212_
*1364 _1213_
*1365 _1214_
*1366 _1215_
*1367 _1216_
*1368 _1217_
*1369 _1218_
*1370 _1219_
*1371 _1220_
*1372 _1221_
*1373 _1222_
*1374 _1223_
*1375 _1224_
*1376 _1225_
*1377 _1226_
*1378 _1227_
*1379 _1228_
*1380 _1229_
*1381 _1230_
*1382 _1231_
*1383 _1232_
*1384 _1233_
*1385 _1234_
*1386 _1235_
*1387 _1236_
*1388 _1237_
*1389 _1238_
*1390 _1239_
*1391 _1240_
*1392 _1241_
*1393 _1242_
*1394 _1243_
*1395 _1244_
*1396 _1245_
*1397 _1246_
*1398 _1247_
*1399 _1248_
*1400 _1249_
*1401 _1250_
*1402 _1251_
*1403 _1252_
*1404 _1253_
*1405 _1254_
*1406 _1255_
*1407 _1256_
*1408 _1257_
*1409 _1258_
*1410 _1259_
*1411 _1260_
*1412 _1261_
*1413 _1262_
*1414 _1263_
*1415 _1264_
*1416 _1265_
*1417 _1266_
*1418 _1267_
*1419 _1268_
*1420 _1269_
*1421 _1270_
*1422 _1271_
*1423 _1272_
*1424 _1273_
*1425 _1274_
*1426 _1275_
*1427 _1276_
*1428 _1277_
*1429 _1278_
*1430 _1279_
*1431 _1280_
*1432 _1281_
*1433 _1282_
*1434 _1283_
*1435 _1284_
*1436 _1285_
*1437 _1286_
*1438 _1287_
*1439 _1288_
*1440 _1289_
*1441 _1290_
*1442 _1291_
*1443 _1292_
*1444 _1293_
*1445 _1294_
*1446 _1295_
*1447 _1296_
*1448 _1297_
*1449 _1298_
*1450 _1299_
*1451 _1300_
*1452 _1301_
*1453 _1302_
*1454 _1303_
*1455 _1304_
*1456 _1305_
*1457 _1306_
*1458 _1307_
*1459 _1308_
*1460 _1309_
*1461 _1310_
*1462 _1311_
*1463 _1312_
*1464 _1313_
*1465 _1314_
*1466 _1315_
*1467 _1316_
*1468 _1317_
*1469 _1318_
*1470 _1319_
*1471 _1320_
*1472 _1321_
*1473 _1322_
*1474 _1323_
*1475 _1324_
*1476 _1325_
*1477 _1326_
*1478 _1327_
*1479 _1328_
*1480 _1329_
*1481 _1330_
*1482 _1331_
*1483 _1332_
*1484 _1333_
*1485 _1334_
*1486 _1335_
*1487 _1336_
*1488 _1337_
*1489 _1338_
*1490 _1339_
*1491 _1340_
*1492 _1341_
*1493 _1342_
*1494 _1343_
*1495 _1344_
*1496 _1345_
*1497 _1346_
*1498 _1347_
*1499 _1348_
*1500 _1349_
*1501 _1350_
*1502 _1351_
*1503 _1352_
*1504 _1353_
*1505 _1354_
*1506 _1355_
*1507 _1356_
*1508 _1357_
*1509 _1358_
*1510 _1359_
*1511 _1360_
*1512 _1361_
*1513 _1362_
*1514 _1363_
*1515 _1364_
*1516 _1365_
*1517 _1366_
*1518 _1367_
*1519 _1368_
*1520 _1369_
*1521 _1370_
*1522 _1371_
*1523 _1372_
*1524 _1373_
*1525 _1374_
*1526 _1375_
*1527 _1376_
*1528 _1377_
*1529 _1378_
*1530 _1379_
*1531 _1380_
*1532 _1381_
*1533 _1382_
*1534 _1383_
*1535 _1384_
*1536 _1385_
*1537 _1386_
*1538 _1387_
*1539 _1388_
*1540 _1389_
*1541 _1390_
*1542 _1391_
*1543 _1392_
*1544 _1393_
*1545 _1394_
*1546 _1395_
*1547 _1396_
*1548 _1397_
*1549 _1398_
*1550 _1399_
*1551 _1400_
*1552 _1401_
*1553 _1402_
*1554 _1403_
*1555 _1404_
*1556 _1405_
*1557 _1406_
*1558 _1407_
*1559 _1408_
*1560 _1409_
*1561 _1410_
*1562 _1411_
*1563 _1412_
*1564 _1413_
*1565 _1414_
*1566 _1415_
*1567 _1416_
*1568 _1417_
*1569 _1418_
*1570 _1419_
*1571 _1420_
*1572 _1421_
*1573 _1422_
*1574 _1423_
*1575 _1424_
*1576 _1425_
*1577 _1426_
*1578 _1427_
*1579 _1428_
*1580 _1429_
*1581 _1430_
*1582 _1431_
*1583 _1432_
*1584 _1433_
*1585 _1434_
*1586 _1435_
*1587 _1436_
*1588 _1437_
*1589 _1438_
*1590 _1439_
*1591 _1440_
*1592 _1441_
*1593 _1442_
*1594 _1443_
*1595 _1444_
*1596 _1445_
*1597 _1446_
*1598 _1447_
*1599 _1448_
*1600 _1449_
*1601 _1450_
*1602 _1451_
*1603 _1452_
*1604 _1453_
*1605 _1454_
*1606 _1455_
*1607 _1456_
*1608 _1457_
*1609 _1458_
*1610 _1459_
*1611 _1460_
*1612 _1461_
*1613 _1462_
*1614 _1463_
*1615 _1464_
*1616 _1465_
*1617 _1466_
*1618 _1467_
*1619 _1468_
*1620 _1469_
*1621 _1470_
*1622 _1471_
*1623 _1472_
*1624 _1473_
*1625 _1474_
*1626 _1475_
*1627 _1476_
*1628 _1477_
*1629 _1478_
*1630 _1479_
*1631 _1480_
*1632 _1481_
*1633 _1482_
*1634 _1483_
*1635 _1484_
*1636 _1485_
*1637 _1486_
*1638 _1487_
*1639 _1488_
*1640 _1489_
*1641 _1490_
*1642 _1491_
*1643 _1492_
*1644 _1493_
*1645 _1494_
*1646 _1495_
*1647 _1496_
*1648 _1497_
*1649 _1498_
*1650 _1499_
*1651 _1500_
*1652 _1501_
*1653 _1502_
*1654 _1503_
*1655 _1504_
*1656 _1505_
*1657 _1506_
*1658 _1507_
*1659 _1508_
*1660 _1509_
*1661 _1510_
*1662 _1511_
*1663 _1512_
*1664 _1513_
*1665 _1514_
*1666 _1515_
*1667 _1516_
*1668 _1517_
*1669 _1518_
*1670 _1519_
*1671 _1520_
*1672 _1521_
*1673 _1522_
*1674 _1523_
*1675 _1524_
*1676 _1525_
*1677 _1526_
*1678 _1527_
*1679 _1528_
*1680 _1529_
*1681 _1530_
*1682 _1531_
*1683 _1532_
*1684 _1533_
*1685 _1534_
*1686 _1535_
*1687 _1536_
*1688 _1537_
*1689 _1538_
*1690 _1539_
*1691 _1540_
*1692 _1541_
*1693 _1542_
*1694 _1543_
*1695 _1544_
*1696 _1545_
*1697 _1546_
*1698 _1547_
*1699 _1548_
*1700 _1549_
*1701 _1550_
*1702 _1551_
*1703 _1552_
*1704 _1553_
*1705 _1554_
*1706 _1555_
*1707 _1556_
*1708 _1557_
*1709 _1558_
*1710 _1559_
*1711 _1560_
*1712 _1561_
*1713 _1562_
*1714 _1563_
*1715 _1564_
*1716 _1565_
*1717 _1566_
*1718 _1567_
*1719 _1568_
*1720 _1569_
*1721 _1570_
*1722 _1571_
*1723 _1572_
*1724 _1573_
*1725 _1574_
*1726 _1575_
*1727 _1576_
*1728 _1577_
*1729 _1578_
*1730 _1579_
*1731 _1580_
*1732 _1581_
*1733 _1582_
*1734 _1583_
*1735 _1584_
*1736 _1585_
*1737 _1586_
*1738 _1587_
*1739 _1588_
*1740 _1589_
*1741 _1590_
*1742 _1591_
*1743 _1592_
*1744 _1593_
*1745 _1594_
*1746 _1595_
*1747 _1596_
*1748 _1597_
*1749 _1598_
*1750 _1599_
*1751 _1600_
*1752 _1601_
*1753 _1602_
*1754 _1603_
*1755 _1604_
*1756 _1605_
*1757 _1606_
*1758 _1607_
*1759 _1608_
*1760 _1609_
*1761 _1610_
*1762 _1611_
*1763 _1612_
*1764 _1613_
*1765 _1614_
*1766 _1615_
*1767 _1616_
*1768 _1617_
*1769 _1618_
*1770 _1619_
*1771 _1620_
*1772 _1621_
*1773 _1622_
*1774 _1623_
*1775 _1624_
*1776 _1625_
*1777 _1626_
*1778 _1627_
*1779 _1628_
*1780 _1629_
*1781 _1630_
*1782 _1631_
*1783 _1632_
*1784 _1633_
*1785 _1634_
*1786 _1635_
*1787 _1636_
*1788 _1637_
*1789 _1638_
*1790 _1639_
*1791 _1640_
*1792 _1641_
*1793 _1642_
*1794 _1643_
*1795 _1644_
*1796 _1645_
*1797 _1646_
*1798 _1647_
*1799 _1648_
*1800 _1649_
*1801 _1650_
*1802 _1651_
*1803 _1652_
*1804 _1653_
*1805 _1654_
*1806 _1655_
*1807 _1656_
*1808 _1657_
*1809 _1658_
*1810 _1659_
*1811 _1660_
*1812 _1661_
*1813 _1662_
*1814 _1663_
*1815 _1664_
*1816 _1665_
*1817 _1666_
*1818 _1667_
*1819 _1668_
*1820 _1669_
*1821 _1670_
*1822 _1671_
*1823 _1672_
*1824 _1673_
*1825 _1674_
*1826 _1675_
*1827 _1676_
*1828 _1677_
*1829 _1678_
*1830 _1679_
*1831 _1680_
*1832 _1681_
*1833 _1682_
*1834 _1683_
*1835 _1684_
*1836 _1685_
*1837 _1686_
*1838 _1687_
*1839 _1688_
*1840 _1689_
*1841 _1690_
*1842 _1691_
*1843 _1692_
*1844 _1693_
*1845 _1694_
*1846 _1695_
*1847 _1696_
*1848 _1697_
*1849 _1698_
*1850 _1699_
*1851 _1700_
*1852 _1701_
*1853 _1702_
*1854 _1703_
*1855 _1704_
*1856 _1705_
*1857 _1706_
*1858 _1707_
*1859 _1708_
*1860 _1709_
*1861 _1710_
*1862 _1711_
*1863 _1712_
*1864 _1713_
*1865 _1714_
*1866 _1715_
*1867 _1716_
*1868 _1717_
*1869 _1718_
*1870 _1719_
*1871 _1720_
*1872 _1721_
*1873 _1722_
*1874 _1723_
*1875 _1724_
*1876 _1725_
*1877 _1726_
*1878 _1727_
*1879 _1728_
*1880 _1729_
*1881 _1730_
*1882 _1731_
*1883 _1732_
*1884 _1733_
*1885 _1734_
*1886 _1735_
*1887 _1736_
*1888 _1737_
*1889 _1738_
*1890 _1739_
*1891 _1740_
*1892 _1741_
*1893 _1742_
*1894 _1743_
*1895 _1744_
*1896 _1745_
*1897 _1746_
*1898 _1747_
*1899 _1748_
*1900 _1749_
*1901 _1750_
*1902 _1751_
*1903 _1752_
*1904 _1753_
*1905 _1754_
*1906 _1755_
*1907 _1756_
*1908 _1757_
*1909 _1758_
*1910 _1759_
*1911 _1760_
*1912 _1761_
*1913 _1762_
*1914 _1763_
*1915 _1764_
*1916 _1765_
*1917 _1766_
*1918 _1767_
*1919 _1768_
*1920 _1769_
*1921 _1770_
*1922 _1771_
*1923 _1772_
*1924 _1773_
*1925 _1774_
*1926 _1775_
*1927 _1776_
*1928 _1777_
*1929 _1778_
*1930 _1779_
*1931 _1780_
*1932 _1781_
*1933 _1782_
*1934 _1783_
*1935 _1784_
*1936 _1785_
*1937 _1786_
*1938 _1787_
*1939 _1788_
*1940 _1789_
*1941 _1790_
*1942 _1791_
*1943 _1792_
*1944 _1793_
*1945 _1794_
*1946 _1795_
*1947 _1796_
*1948 _1797_
*1949 _1798_
*1950 _1799_
*1951 _1800_
*1952 _1801_
*1953 _1802_
*1954 _1803_
*1955 _1804_
*1956 _1805_
*1957 _1806_
*1958 _1807_
*1959 _1808_
*1960 _1809_
*1961 _1810_
*1962 _1811_
*1963 _1812_
*1964 _1813_
*1965 _1814_
*1966 _1815_
*1967 _1816_
*1968 _1817_
*1969 _1818_
*1970 _1819_
*1971 _1820_
*1972 _1821_
*1973 _1822_
*1974 _1823_
*1975 _1824_
*1976 _1825_
*1977 _1826_
*1978 _1827_
*1979 _1828_
*1980 _1829_
*1981 _1830_
*1982 _1831_
*1983 _1832_
*1984 _1833_
*1985 _1834_
*1986 _1835_
*1987 _1836_
*1988 _1837_
*1989 _1838_
*1990 _1839_
*1991 _1840_
*1992 _1841_
*1993 _1842_
*1994 _1843_
*1995 _1844_
*1996 _1845_
*1997 _1846_
*1998 _1847_
*1999 _1848_
*2000 _1849_
*2001 _1850_
*2002 _1851_
*2003 _1852_
*2004 _1853_
*2005 _1854_
*2006 _1855_
*2007 _1856_
*2008 _1857_
*2009 _1858_
*2010 _1859_
*2011 _1860_
*2012 _1861_
*2013 _1862_
*2014 _1863_
*2015 _1864_
*2016 _1865_
*2017 _1866_
*2018 _1867_
*2019 _1868_
*2020 _1869_
*2021 _1870_
*2022 _1871_
*2023 _1872_
*2024 _1873_
*2025 _1874_
*2026 _1875_
*2027 _1876_
*2028 _1877_
*2029 _1878_
*2030 _1879_
*2031 _1880_
*2032 _1881_
*2033 _1882_
*2034 _1883_
*2035 _1884_
*2036 _1885_
*2037 _1886_
*2038 _1887_
*2039 _1888_
*2040 _1889_
*2041 _1890_
*2042 _1891_
*2043 _1892_
*2044 _1893_
*2045 _1894_
*2046 _1895_
*2047 _1896_
*2048 _1897_
*2049 _1898_
*2050 _1899_
*2051 _1900_
*2052 _1901_
*2053 _1902_
*2054 _1903_
*2055 _1904_
*2056 _1905_
*2057 _1906_
*2058 _1907_
*2059 _1908_
*2060 _1909_
*2061 _1910_
*2062 _1911_
*2063 _1912_
*2064 _1913_
*2065 _1914_
*2066 _1915_
*2067 _1916_
*2068 _1917_
*2069 _1918_
*2070 _1919_
*2071 _1920_
*2072 _1921_
*2073 _1922_
*2074 _1923_
*2075 _1924_
*2076 _1925_
*2077 _1926_
*2078 _1927_
*2079 _1928_
*2080 _1929_
*2081 _1930_
*2082 _1931_
*2083 _1932_
*2084 _1933_
*2085 _1934_
*2086 _1935_
*2087 _1936_
*2088 _1937_
*2089 _1938_
*2090 _1939_
*2091 _1940_
*2092 _1941_
*2093 _1942_
*2094 _1943_
*2095 _1944_
*2096 _1945_
*2097 _1946_
*2098 _1947_
*2099 _1948_
*2100 _1949_
*2101 _1950_
*2102 _1951_
*2103 _1952_
*2104 _1953_
*2105 _1954_
*2106 _1955_
*2107 _1956_
*2108 _1957_
*2109 _1958_
*2110 _1959_
*2111 _1960_
*2112 _1961_
*2113 _1962_
*2114 _1963_
*2115 _1964_
*2116 _1965_
*2117 _1966_
*2118 _1967_
*2119 _1968_
*2120 _1969_
*2121 _1970_
*2122 _1971_
*2123 _1972_
*2124 _1973_
*2125 _1974_
*2126 _1975_
*2127 _1976_
*2128 _1977_
*2129 _1978_
*2130 _1979_
*2131 _1980_
*2132 _1981_
*2133 _1982_
*2134 _1983_
*2135 _1984_
*2136 _1985_
*2137 _1986_
*2138 _1987_
*2139 _1988_
*2140 _1989_
*2141 _1990_
*2142 _1991_
*2143 _1992_
*2144 _1993_
*2145 _1994_
*2146 _1995_
*2147 _1996_
*2148 _1997_
*2149 _1998_
*2150 _1999_
*2151 _2000_
*2152 _2001_
*2153 _2002_
*2154 _2003_
*2155 _2004_
*2156 _2005_
*2157 _2006_
*2158 _2007_
*2159 _2008_
*2160 _2009_
*2161 _2010_
*2162 _2011_
*2163 _2012_
*2164 _2013_
*2165 _2014_
*2166 _2015_
*2167 _2016_
*2168 _2017_
*2169 _2018_
*2170 _2019_
*2171 _2020_
*2172 _2021_
*2173 _2022_
*2174 _2023_
*2175 _2024_
*2176 _2025_
*2177 _2026_
*2178 _2027_
*2179 _2028_
*2180 _2029_
*2181 _2030_
*2182 _2031_
*2183 _2032_
*2184 _2033_
*2185 _2034_
*2186 _2035_
*2187 _2036_
*2188 _2037_
*2189 _2038_
*2190 _2039_
*2191 _2040_
*2192 _2041_
*2193 _2042_
*2194 _2043_
*2195 _2044_
*2196 _2045_
*2197 _2046_
*2198 _2047_
*2199 _2048_
*2200 _2049_
*2201 _2050_
*2202 _2051_
*2203 _2052_
*2204 _2053_
*2205 _2054_
*2206 _2055_
*2207 _2056_
*2208 _2057_
*2209 _2058_
*2210 _2059_
*2211 _2060_
*2212 _2061_
*2213 _2062_
*2214 _2063_
*2215 _2064_
*2216 _2065_
*2217 _2066_
*2218 _2067_
*2219 _2068_
*2220 _2069_
*2221 _2070_
*2222 _2071_
*2223 _2072_
*2224 _2073_
*2225 _2074_
*2226 _2075_
*2227 _2076_
*2228 _2077_
*2229 _2078_
*2230 _2079_
*2231 _2080_
*2232 _2081_
*2233 _2082_
*2234 _2083_
*2235 _2084_
*2236 _2085_
*2237 _2086_
*2238 _2087_
*2239 _2088_
*2240 _2089_
*2241 _2090_
*2242 _2091_
*2243 _2092_
*2244 _2093_
*2245 _2094_
*2246 _2095_
*2247 _2096_
*2248 _2097_
*2249 _2098_
*2250 _2099_
*2251 _2100_
*2252 _2101_
*2253 _2102_
*2254 _2103_
*2255 _2104_
*2256 _2105_
*2257 _2106_
*2258 _2107_
*2259 _2108_
*2260 _2109_
*2261 _2110_
*2262 _2111_
*2263 _2112_
*2264 _2113_
*2265 _2114_
*2266 _2115_
*2267 _2116_
*2268 _2117_
*2269 _2118_
*2270 _2119_
*2271 _2120_
*2272 _2121_
*2273 _2122_
*2274 _2123_
*2275 _2124_
*2276 _2125_
*2277 _2126_
*2278 _2127_
*2279 _2128_
*2280 _2129_
*2281 _2130_
*2282 _2131_
*2283 _2132_
*2284 _2133_
*2285 _2134_
*2286 _2135_
*2287 _2136_
*2288 _2137_
*2289 _2138_
*2290 _2139_
*2291 _2140_
*2292 _2141_
*2293 _2142_
*2294 _2143_
*2295 _2144_
*2296 _2145_
*2297 _2146_
*2298 _2147_
*2299 _2148_
*2300 _2149_
*2301 _2150_
*2302 _2151_
*2303 _2152_
*2304 _2153_
*2305 _2154_
*2306 _2155_
*2307 _2156_
*2308 _2157_
*2309 _2158_
*2310 _2159_
*2311 _2160_
*2312 _2161_
*2313 _2162_
*2314 _2163_
*2315 _2164_
*2316 _2165_
*2317 _2166_
*2318 _2167_
*2319 _2168_
*2320 _2169_
*2321 _2170_
*2322 _2171_
*2323 _2172_
*2324 _2173_
*2325 _2174_
*2326 _2175_
*2327 _2176_
*2328 _2177_
*2329 _2178_
*2330 _2179_
*2331 _2180_
*2332 _2181_
*2333 _2182_
*2334 _2183_
*2335 _2184_