* NGSPICE file created from picorv32.ext - technology: sky130A

* Black-box entry subcircuit for sky130_fd_sc_hd__fill_2 abstract view
.subckt sky130_fd_sc_hd__fill_2 VGND VNB VPB VPWR
.ends

* Black-box entry subcircuit for sky130_fd_sc_hd__a2bb2o_1 abstract view
.subckt sky130_fd_sc_hd__a2bb2o_1 A1_N A2_N B1 B2 VGND VNB VPB VPWR X
.ends

* Black-box entry subcircuit for sky130_fd_sc_hd__a211o_1 abstract view
.subckt sky130_fd_sc_hd__a211o_1 A1 A2 B1 C1 VGND VNB VPB VPWR X
.ends

* Black-box entry subcircuit for sky130_fd_sc_hd__fill_1 abstract view
.subckt sky130_fd_sc_hd__fill_1 VGND VNB VPB VPWR
.ends

* Black-box entry subcircuit for sky130_fd_sc_hd__tapvpwrvgnd_1 abstract view
.subckt sky130_fd_sc_hd__tapvpwrvgnd_1 VGND VPWR
.ends

* Black-box entry subcircuit for sky130_fd_sc_hd__inv_2 abstract view
.subckt sky130_fd_sc_hd__inv_2 A VGND VNB VPB VPWR Y
.ends

* Black-box entry subcircuit for sky130_fd_sc_hd__decap_4 abstract view
.subckt sky130_fd_sc_hd__decap_4 VGND VNB VPB VPWR
.ends

* Black-box entry subcircuit for sky130_fd_sc_hd__a21o_1 abstract view
.subckt sky130_fd_sc_hd__a21o_1 A1 A2 B1 VGND VNB VPB VPWR X
.ends

* Black-box entry subcircuit for sky130_fd_sc_hd__decap_6 abstract view
.subckt sky130_fd_sc_hd__decap_6 VGND VNB VPB VPWR
.ends

* Black-box entry subcircuit for sky130_fd_sc_hd__o31a_1 abstract view
.subckt sky130_fd_sc_hd__o31a_1 A1 A2 A3 B1 VGND VNB VPB VPWR X
.ends

* Black-box entry subcircuit for sky130_fd_sc_hd__nand3_1 abstract view
.subckt sky130_fd_sc_hd__nand3_1 A B C VGND VNB VPB VPWR Y
.ends

* Black-box entry subcircuit for sky130_fd_sc_hd__decap_3 abstract view
.subckt sky130_fd_sc_hd__decap_3 VGND VNB VPB VPWR
.ends

* Black-box entry subcircuit for sky130_fd_sc_hd__a22o_1 abstract view
.subckt sky130_fd_sc_hd__a22o_1 A1 A2 B1 B2 VGND VNB VPB VPWR X
.ends

* Black-box entry subcircuit for sky130_ef_sc_hd__decap_12 abstract view
.subckt sky130_ef_sc_hd__decap_12 VPWR VGND VPB VNB
.ends

* Black-box entry subcircuit for sky130_fd_sc_hd__a31o_1 abstract view
.subckt sky130_fd_sc_hd__a31o_1 A1 A2 A3 B1 VGND VNB VPB VPWR X
.ends

* Black-box entry subcircuit for sky130_fd_sc_hd__mux2_1 abstract view
.subckt sky130_fd_sc_hd__mux2_1 A0 A1 S VGND VNB VPB VPWR X
.ends

* Black-box entry subcircuit for sky130_fd_sc_hd__o21a_1 abstract view
.subckt sky130_fd_sc_hd__o21a_1 A1 A2 B1 VGND VNB VPB VPWR X
.ends

* Black-box entry subcircuit for sky130_fd_sc_hd__dlygate4sd3_1 abstract view
.subckt sky130_fd_sc_hd__dlygate4sd3_1 A VGND VNB VPB VPWR X
.ends

* Black-box entry subcircuit for sky130_fd_sc_hd__clkbuf_4 abstract view
.subckt sky130_fd_sc_hd__clkbuf_4 A VGND VNB VPB VPWR X
.ends

* Black-box entry subcircuit for sky130_fd_sc_hd__buf_2 abstract view
.subckt sky130_fd_sc_hd__buf_2 A VGND VNB VPB VPWR X
.ends

* Black-box entry subcircuit for sky130_fd_sc_hd__dlymetal6s2s_1 abstract view
.subckt sky130_fd_sc_hd__dlymetal6s2s_1 A VGND VNB VPB VPWR X
.ends

* Black-box entry subcircuit for sky130_fd_sc_hd__nand2_1 abstract view
.subckt sky130_fd_sc_hd__nand2_1 A B VGND VNB VPB VPWR Y
.ends

* Black-box entry subcircuit for sky130_fd_sc_hd__nand2b_1 abstract view
.subckt sky130_fd_sc_hd__nand2b_1 A_N B VGND VNB VPB VPWR Y
.ends

* Black-box entry subcircuit for sky130_fd_sc_hd__and2b_1 abstract view
.subckt sky130_fd_sc_hd__and2b_1 A_N B VGND VNB VPB VPWR X
.ends

* Black-box entry subcircuit for sky130_fd_sc_hd__dfxtp_1 abstract view
.subckt sky130_fd_sc_hd__dfxtp_1 CLK D VGND VNB VPB VPWR Q
.ends

* Black-box entry subcircuit for sky130_fd_sc_hd__or4_1 abstract view
.subckt sky130_fd_sc_hd__or4_1 A B C D VGND VNB VPB VPWR X
.ends

* Black-box entry subcircuit for sky130_fd_sc_hd__decap_8 abstract view
.subckt sky130_fd_sc_hd__decap_8 VGND VNB VPB VPWR
.ends

* Black-box entry subcircuit for sky130_fd_sc_hd__and3_1 abstract view
.subckt sky130_fd_sc_hd__and3_1 A B C VGND VNB VPB VPWR X
.ends

* Black-box entry subcircuit for sky130_fd_sc_hd__nor2_1 abstract view
.subckt sky130_fd_sc_hd__nor2_1 A B VGND VNB VPB VPWR Y
.ends

* Black-box entry subcircuit for sky130_fd_sc_hd__or2_1 abstract view
.subckt sky130_fd_sc_hd__or2_1 A B VGND VNB VPB VPWR X
.ends

* Black-box entry subcircuit for sky130_fd_sc_hd__dfxtp_2 abstract view
.subckt sky130_fd_sc_hd__dfxtp_2 CLK D VGND VNB VPB VPWR Q
.ends

* Black-box entry subcircuit for sky130_fd_sc_hd__a21oi_1 abstract view
.subckt sky130_fd_sc_hd__a21oi_1 A1 A2 B1 VGND VNB VPB VPWR Y
.ends

* Black-box entry subcircuit for sky130_fd_sc_hd__o21ai_1 abstract view
.subckt sky130_fd_sc_hd__o21ai_1 A1 A2 B1 VGND VNB VPB VPWR Y
.ends

* Black-box entry subcircuit for sky130_fd_sc_hd__xnor2_1 abstract view
.subckt sky130_fd_sc_hd__xnor2_1 A B VGND VNB VPB VPWR Y
.ends

* Black-box entry subcircuit for sky130_fd_sc_hd__a221o_1 abstract view
.subckt sky130_fd_sc_hd__a221o_1 A1 A2 B1 B2 C1 VGND VNB VPB VPWR X
.ends

* Black-box entry subcircuit for sky130_fd_sc_hd__and4_1 abstract view
.subckt sky130_fd_sc_hd__and4_1 A B C D VGND VNB VPB VPWR X
.ends

* Black-box entry subcircuit for sky130_fd_sc_hd__mux2_2 abstract view
.subckt sky130_fd_sc_hd__mux2_2 A0 A1 S VGND VNB VPB VPWR X
.ends

* Black-box entry subcircuit for sky130_fd_sc_hd__a32o_1 abstract view
.subckt sky130_fd_sc_hd__a32o_1 A1 A2 A3 B1 B2 VGND VNB VPB VPWR X
.ends

* Black-box entry subcircuit for sky130_fd_sc_hd__o32a_1 abstract view
.subckt sky130_fd_sc_hd__o32a_1 A1 A2 A3 B1 B2 VGND VNB VPB VPWR X
.ends

* Black-box entry subcircuit for sky130_fd_sc_hd__and2b_2 abstract view
.subckt sky130_fd_sc_hd__and2b_2 A_N B VGND VNB VPB VPWR X
.ends

* Black-box entry subcircuit for sky130_fd_sc_hd__clkbuf_8 abstract view
.subckt sky130_fd_sc_hd__clkbuf_8 A VGND VNB VPB VPWR X
.ends

* Black-box entry subcircuit for sky130_fd_sc_hd__and2_1 abstract view
.subckt sky130_fd_sc_hd__and2_1 A B VGND VNB VPB VPWR X
.ends

* Black-box entry subcircuit for sky130_fd_sc_hd__nand3b_1 abstract view
.subckt sky130_fd_sc_hd__nand3b_1 A_N B C VGND VNB VPB VPWR Y
.ends

* Black-box entry subcircuit for sky130_fd_sc_hd__buf_4 abstract view
.subckt sky130_fd_sc_hd__buf_4 A VGND VNB VPB VPWR X
.ends

* Black-box entry subcircuit for sky130_fd_sc_hd__and3_2 abstract view
.subckt sky130_fd_sc_hd__and3_2 A B C VGND VNB VPB VPWR X
.ends

* Black-box entry subcircuit for sky130_fd_sc_hd__nor3_1 abstract view
.subckt sky130_fd_sc_hd__nor3_1 A B C VGND VNB VPB VPWR Y
.ends

* Black-box entry subcircuit for sky130_fd_sc_hd__a311o_1 abstract view
.subckt sky130_fd_sc_hd__a311o_1 A1 A2 A3 B1 C1 VGND VNB VPB VPWR X
.ends

* Black-box entry subcircuit for sky130_fd_sc_hd__clkinv_2 abstract view
.subckt sky130_fd_sc_hd__clkinv_2 A VGND VNB VPB VPWR Y
.ends

* Black-box entry subcircuit for sky130_fd_sc_hd__o211a_1 abstract view
.subckt sky130_fd_sc_hd__o211a_1 A1 A2 B1 C1 VGND VNB VPB VPWR X
.ends

* Black-box entry subcircuit for sky130_fd_sc_hd__o22a_1 abstract view
.subckt sky130_fd_sc_hd__o22a_1 A1 A2 B1 B2 VGND VNB VPB VPWR X
.ends

* Black-box entry subcircuit for sky130_fd_sc_hd__a21bo_1 abstract view
.subckt sky130_fd_sc_hd__a21bo_1 A1 A2 B1_N VGND VNB VPB VPWR X
.ends

* Black-box entry subcircuit for sky130_fd_sc_hd__a2111o_1 abstract view
.subckt sky130_fd_sc_hd__a2111o_1 A1 A2 B1 C1 D1 VGND VNB VPB VPWR X
.ends

* Black-box entry subcircuit for sky130_fd_sc_hd__conb_1 abstract view
.subckt sky130_fd_sc_hd__conb_1 VGND VNB VPB VPWR HI LO
.ends

* Black-box entry subcircuit for sky130_fd_sc_hd__clkbuf_1 abstract view
.subckt sky130_fd_sc_hd__clkbuf_1 A VGND VNB VPB VPWR X
.ends

* Black-box entry subcircuit for sky130_fd_sc_hd__diode_2 abstract view
.subckt sky130_fd_sc_hd__diode_2 DIODE VGND VNB VPB VPWR
.ends

* Black-box entry subcircuit for sky130_fd_sc_hd__a21oi_2 abstract view
.subckt sky130_fd_sc_hd__a21oi_2 A1 A2 B1 VGND VNB VPB VPWR Y
.ends

* Black-box entry subcircuit for sky130_fd_sc_hd__clkbuf_2 abstract view
.subckt sky130_fd_sc_hd__clkbuf_2 A VGND VNB VPB VPWR X
.ends

* Black-box entry subcircuit for sky130_fd_sc_hd__a41o_1 abstract view
.subckt sky130_fd_sc_hd__a41o_1 A1 A2 A3 A4 B1 VGND VNB VPB VPWR X
.ends

* Black-box entry subcircuit for sky130_fd_sc_hd__o21a_2 abstract view
.subckt sky130_fd_sc_hd__o21a_2 A1 A2 B1 VGND VNB VPB VPWR X
.ends

* Black-box entry subcircuit for sky130_fd_sc_hd__xor2_1 abstract view
.subckt sky130_fd_sc_hd__xor2_1 A B VGND VNB VPB VPWR X
.ends

* Black-box entry subcircuit for sky130_fd_sc_hd__buf_1 abstract view
.subckt sky130_fd_sc_hd__buf_1 A VGND VNB VPB VPWR X
.ends

* Black-box entry subcircuit for sky130_fd_sc_hd__o221a_1 abstract view
.subckt sky130_fd_sc_hd__o221a_1 A1 A2 B1 B2 C1 VGND VNB VPB VPWR X
.ends

* Black-box entry subcircuit for sky130_fd_sc_hd__or3_1 abstract view
.subckt sky130_fd_sc_hd__or3_1 A B C VGND VNB VPB VPWR X
.ends

* Black-box entry subcircuit for sky130_fd_sc_hd__nand4_2 abstract view
.subckt sky130_fd_sc_hd__nand4_2 A B C D VGND VNB VPB VPWR Y
.ends

* Black-box entry subcircuit for sky130_fd_sc_hd__mux2_4 abstract view
.subckt sky130_fd_sc_hd__mux2_4 A0 A1 S VGND VNB VPB VPWR X
.ends

* Black-box entry subcircuit for sky130_fd_sc_hd__o221ai_1 abstract view
.subckt sky130_fd_sc_hd__o221ai_1 A1 A2 B1 B2 C1 VGND VNB VPB VPWR Y
.ends

* Black-box entry subcircuit for sky130_fd_sc_hd__a32o_2 abstract view
.subckt sky130_fd_sc_hd__a32o_2 A1 A2 A3 B1 B2 VGND VNB VPB VPWR X
.ends

* Black-box entry subcircuit for sky130_fd_sc_hd__and4_2 abstract view
.subckt sky130_fd_sc_hd__and4_2 A B C D VGND VNB VPB VPWR X
.ends

* Black-box entry subcircuit for sky130_fd_sc_hd__or3_2 abstract view
.subckt sky130_fd_sc_hd__or3_2 A B C VGND VNB VPB VPWR X
.ends

* Black-box entry subcircuit for sky130_fd_sc_hd__a211oi_1 abstract view
.subckt sky130_fd_sc_hd__a211oi_1 A1 A2 B1 C1 VGND VNB VPB VPWR Y
.ends

* Black-box entry subcircuit for sky130_fd_sc_hd__bufinv_16 abstract view
.subckt sky130_fd_sc_hd__bufinv_16 A VGND VNB VPB VPWR Y
.ends

* Black-box entry subcircuit for sky130_fd_sc_hd__clkinv_4 abstract view
.subckt sky130_fd_sc_hd__clkinv_4 A VGND VNB VPB VPWR Y
.ends

* Black-box entry subcircuit for sky130_fd_sc_hd__or3b_1 abstract view
.subckt sky130_fd_sc_hd__or3b_1 A B C_N VGND VNB VPB VPWR X
.ends

* Black-box entry subcircuit for sky130_fd_sc_hd__a31oi_1 abstract view
.subckt sky130_fd_sc_hd__a31oi_1 A1 A2 A3 B1 VGND VNB VPB VPWR Y
.ends

* Black-box entry subcircuit for sky130_fd_sc_hd__and3b_1 abstract view
.subckt sky130_fd_sc_hd__and3b_1 A_N B C VGND VNB VPB VPWR X
.ends

* Black-box entry subcircuit for sky130_fd_sc_hd__nor2_4 abstract view
.subckt sky130_fd_sc_hd__nor2_4 A B VGND VNB VPB VPWR Y
.ends

* Black-box entry subcircuit for sky130_fd_sc_hd__nand2_2 abstract view
.subckt sky130_fd_sc_hd__nand2_2 A B VGND VNB VPB VPWR Y
.ends

* Black-box entry subcircuit for sky130_fd_sc_hd__dfxtp_4 abstract view
.subckt sky130_fd_sc_hd__dfxtp_4 CLK D VGND VNB VPB VPWR Q
.ends

* Black-box entry subcircuit for sky130_fd_sc_hd__clkinvlp_4 abstract view
.subckt sky130_fd_sc_hd__clkinvlp_4 A VGND VNB VPB VPWR Y
.ends

* Black-box entry subcircuit for sky130_fd_sc_hd__a211o_2 abstract view
.subckt sky130_fd_sc_hd__a211o_2 A1 A2 B1 C1 VGND VNB VPB VPWR X
.ends

* Black-box entry subcircuit for sky130_fd_sc_hd__nor2_2 abstract view
.subckt sky130_fd_sc_hd__nor2_2 A B VGND VNB VPB VPWR Y
.ends

* Black-box entry subcircuit for sky130_fd_sc_hd__o21ba_1 abstract view
.subckt sky130_fd_sc_hd__o21ba_1 A1 A2 B1_N VGND VNB VPB VPWR X
.ends

* Black-box entry subcircuit for sky130_fd_sc_hd__inv_6 abstract view
.subckt sky130_fd_sc_hd__inv_6 A VGND VNB VPB VPWR Y
.ends

* Black-box entry subcircuit for sky130_fd_sc_hd__a311oi_1 abstract view
.subckt sky130_fd_sc_hd__a311oi_1 A1 A2 A3 B1 C1 VGND VNB VPB VPWR Y
.ends

* Black-box entry subcircuit for sky130_fd_sc_hd__o31ai_1 abstract view
.subckt sky130_fd_sc_hd__o31ai_1 A1 A2 A3 B1 VGND VNB VPB VPWR Y
.ends

* Black-box entry subcircuit for sky130_fd_sc_hd__o21bai_1 abstract view
.subckt sky130_fd_sc_hd__o21bai_1 A1 A2 B1_N VGND VNB VPB VPWR Y
.ends

* Black-box entry subcircuit for sky130_fd_sc_hd__a21oi_4 abstract view
.subckt sky130_fd_sc_hd__a21oi_4 A1 A2 B1 VGND VNB VPB VPWR Y
.ends

* Black-box entry subcircuit for sky130_fd_sc_hd__a2111oi_1 abstract view
.subckt sky130_fd_sc_hd__a2111oi_1 A1 A2 B1 C1 D1 VGND VNB VPB VPWR Y
.ends

* Black-box entry subcircuit for sky130_fd_sc_hd__o22ai_1 abstract view
.subckt sky130_fd_sc_hd__o22ai_1 A1 A2 B1 B2 VGND VNB VPB VPWR Y
.ends

* Black-box entry subcircuit for sky130_fd_sc_hd__inv_12 abstract view
.subckt sky130_fd_sc_hd__inv_12 A VGND VNB VPB VPWR Y
.ends

* Black-box entry subcircuit for sky130_fd_sc_hd__or4_4 abstract view
.subckt sky130_fd_sc_hd__or4_4 A B C D VGND VNB VPB VPWR X
.ends

* Black-box entry subcircuit for sky130_fd_sc_hd__o211ai_2 abstract view
.subckt sky130_fd_sc_hd__o211ai_2 A1 A2 B1 C1 VGND VNB VPB VPWR Y
.ends

* Black-box entry subcircuit for sky130_fd_sc_hd__o41a_1 abstract view
.subckt sky130_fd_sc_hd__o41a_1 A1 A2 A3 A4 B1 VGND VNB VPB VPWR X
.ends

* Black-box entry subcircuit for sky130_fd_sc_hd__and2_2 abstract view
.subckt sky130_fd_sc_hd__and2_2 A B VGND VNB VPB VPWR X
.ends

* Black-box entry subcircuit for sky130_fd_sc_hd__o21a_4 abstract view
.subckt sky130_fd_sc_hd__o21a_4 A1 A2 B1 VGND VNB VPB VPWR X
.ends

* Black-box entry subcircuit for sky130_fd_sc_hd__a31oi_4 abstract view
.subckt sky130_fd_sc_hd__a31oi_4 A1 A2 A3 B1 VGND VNB VPB VPWR Y
.ends

* Black-box entry subcircuit for sky130_fd_sc_hd__inv_8 abstract view
.subckt sky130_fd_sc_hd__inv_8 A VGND VNB VPB VPWR Y
.ends

* Black-box entry subcircuit for sky130_fd_sc_hd__and4b_2 abstract view
.subckt sky130_fd_sc_hd__and4b_2 A_N B C D VGND VNB VPB VPWR X
.ends

* Black-box entry subcircuit for sky130_fd_sc_hd__clkinv_8 abstract view
.subckt sky130_fd_sc_hd__clkinv_8 A VGND VNB VPB VPWR Y
.ends

* Black-box entry subcircuit for sky130_fd_sc_hd__nor3b_1 abstract view
.subckt sky130_fd_sc_hd__nor3b_1 A B C_N VGND VNB VPB VPWR Y
.ends

* Black-box entry subcircuit for sky130_fd_sc_hd__a22o_4 abstract view
.subckt sky130_fd_sc_hd__a22o_4 A1 A2 B1 B2 VGND VNB VPB VPWR X
.ends

* Black-box entry subcircuit for sky130_fd_sc_hd__o311a_1 abstract view
.subckt sky130_fd_sc_hd__o311a_1 A1 A2 A3 B1 C1 VGND VNB VPB VPWR X
.ends

* Black-box entry subcircuit for sky130_fd_sc_hd__nor4_1 abstract view
.subckt sky130_fd_sc_hd__nor4_1 A B C D VGND VNB VPB VPWR Y
.ends

* Black-box entry subcircuit for sky130_fd_sc_hd__a21boi_1 abstract view
.subckt sky130_fd_sc_hd__a21boi_1 A1 A2 B1_N VGND VNB VPB VPWR Y
.ends

* Black-box entry subcircuit for sky130_fd_sc_hd__a22o_2 abstract view
.subckt sky130_fd_sc_hd__a22o_2 A1 A2 B1 B2 VGND VNB VPB VPWR X
.ends

* Black-box entry subcircuit for sky130_fd_sc_hd__a211oi_2 abstract view
.subckt sky130_fd_sc_hd__a211oi_2 A1 A2 B1 C1 VGND VNB VPB VPWR Y
.ends

* Black-box entry subcircuit for sky130_fd_sc_hd__o211ai_1 abstract view
.subckt sky130_fd_sc_hd__o211ai_1 A1 A2 B1 C1 VGND VNB VPB VPWR Y
.ends

* Black-box entry subcircuit for sky130_fd_sc_hd__or4bb_2 abstract view
.subckt sky130_fd_sc_hd__or4bb_2 A B C_N D_N VGND VNB VPB VPWR X
.ends

* Black-box entry subcircuit for sky130_fd_sc_hd__nand2b_2 abstract view
.subckt sky130_fd_sc_hd__nand2b_2 A_N B VGND VNB VPB VPWR Y
.ends

* Black-box entry subcircuit for sky130_fd_sc_hd__o2bb2a_1 abstract view
.subckt sky130_fd_sc_hd__o2bb2a_1 A1_N A2_N B1 B2 VGND VNB VPB VPWR X
.ends

* Black-box entry subcircuit for sky130_fd_sc_hd__a22oi_1 abstract view
.subckt sky130_fd_sc_hd__a22oi_1 A1 A2 B1 B2 VGND VNB VPB VPWR Y
.ends

* Black-box entry subcircuit for sky130_fd_sc_hd__and4bb_1 abstract view
.subckt sky130_fd_sc_hd__and4bb_1 A_N B_N C D VGND VNB VPB VPWR X
.ends

* Black-box entry subcircuit for sky130_fd_sc_hd__clkbuf_16 abstract view
.subckt sky130_fd_sc_hd__clkbuf_16 A VGND VNB VPB VPWR X
.ends

* Black-box entry subcircuit for sky130_fd_sc_hd__or2_4 abstract view
.subckt sky130_fd_sc_hd__or2_4 A B VGND VNB VPB VPWR X
.ends

* Black-box entry subcircuit for sky130_fd_sc_hd__inv_16 abstract view
.subckt sky130_fd_sc_hd__inv_16 A VGND VNB VPB VPWR Y
.ends

* Black-box entry subcircuit for sky130_fd_sc_hd__or3_4 abstract view
.subckt sky130_fd_sc_hd__or3_4 A B C VGND VNB VPB VPWR X
.ends

* Black-box entry subcircuit for sky130_fd_sc_hd__or4b_1 abstract view
.subckt sky130_fd_sc_hd__or4b_1 A B C D_N VGND VNB VPB VPWR X
.ends

* Black-box entry subcircuit for sky130_fd_sc_hd__or4bb_1 abstract view
.subckt sky130_fd_sc_hd__or4bb_1 A B C_N D_N VGND VNB VPB VPWR X
.ends

* Black-box entry subcircuit for sky130_fd_sc_hd__and4b_1 abstract view
.subckt sky130_fd_sc_hd__and4b_1 A_N B C D VGND VNB VPB VPWR X
.ends

* Black-box entry subcircuit for sky130_fd_sc_hd__or4_2 abstract view
.subckt sky130_fd_sc_hd__or4_2 A B C D VGND VNB VPB VPWR X
.ends

* Black-box entry subcircuit for sky130_fd_sc_hd__o2111a_1 abstract view
.subckt sky130_fd_sc_hd__o2111a_1 A1 A2 B1 C1 D1 VGND VNB VPB VPWR X
.ends

* Black-box entry subcircuit for sky130_fd_sc_hd__or2_2 abstract view
.subckt sky130_fd_sc_hd__or2_2 A B VGND VNB VPB VPWR X
.ends

* Black-box entry subcircuit for sky130_fd_sc_hd__xor2_2 abstract view
.subckt sky130_fd_sc_hd__xor2_2 A B VGND VNB VPB VPWR X
.ends

* Black-box entry subcircuit for sky130_fd_sc_hd__o21ai_2 abstract view
.subckt sky130_fd_sc_hd__o21ai_2 A1 A2 B1 VGND VNB VPB VPWR Y
.ends

* Black-box entry subcircuit for sky130_fd_sc_hd__nand4_1 abstract view
.subckt sky130_fd_sc_hd__nand4_1 A B C D VGND VNB VPB VPWR Y
.ends

* Black-box entry subcircuit for sky130_fd_sc_hd__or3b_4 abstract view
.subckt sky130_fd_sc_hd__or3b_4 A B C_N VGND VNB VPB VPWR X
.ends

* Black-box entry subcircuit for sky130_fd_sc_hd__nor3_2 abstract view
.subckt sky130_fd_sc_hd__nor3_2 A B C VGND VNB VPB VPWR Y
.ends

* Black-box entry subcircuit for sky130_fd_sc_hd__o21ai_4 abstract view
.subckt sky130_fd_sc_hd__o21ai_4 A1 A2 B1 VGND VNB VPB VPWR Y
.ends

* Black-box entry subcircuit for sky130_fd_sc_hd__a21o_2 abstract view
.subckt sky130_fd_sc_hd__a21o_2 A1 A2 B1 VGND VNB VPB VPWR X
.ends

* Black-box entry subcircuit for sky130_fd_sc_hd__and3b_4 abstract view
.subckt sky130_fd_sc_hd__and3b_4 A_N B C VGND VNB VPB VPWR X
.ends

* Black-box entry subcircuit for sky130_fd_sc_hd__nand2_8 abstract view
.subckt sky130_fd_sc_hd__nand2_8 A B VGND VNB VPB VPWR Y
.ends

* Black-box entry subcircuit for sky130_fd_sc_hd__a31o_4 abstract view
.subckt sky130_fd_sc_hd__a31o_4 A1 A2 A3 B1 VGND VNB VPB VPWR X
.ends

* Black-box entry subcircuit for sky130_fd_sc_hd__buf_6 abstract view
.subckt sky130_fd_sc_hd__buf_6 A VGND VNB VPB VPWR X
.ends

* Black-box entry subcircuit for sky130_fd_sc_hd__o2111ai_1 abstract view
.subckt sky130_fd_sc_hd__o2111ai_1 A1 A2 B1 C1 D1 VGND VNB VPB VPWR Y
.ends

* Black-box entry subcircuit for sky130_fd_sc_hd__nor3_4 abstract view
.subckt sky130_fd_sc_hd__nor3_4 A B C VGND VNB VPB VPWR Y
.ends

* Black-box entry subcircuit for sky130_fd_sc_hd__a311oi_2 abstract view
.subckt sky130_fd_sc_hd__a311oi_2 A1 A2 A3 B1 C1 VGND VNB VPB VPWR Y
.ends

* Black-box entry subcircuit for sky130_fd_sc_hd__a31o_2 abstract view
.subckt sky130_fd_sc_hd__a31o_2 A1 A2 A3 B1 VGND VNB VPB VPWR X
.ends

* Black-box entry subcircuit for sky130_fd_sc_hd__a221oi_1 abstract view
.subckt sky130_fd_sc_hd__a221oi_1 A1 A2 B1 B2 C1 VGND VNB VPB VPWR Y
.ends

* Black-box entry subcircuit for sky130_fd_sc_hd__nand2_4 abstract view
.subckt sky130_fd_sc_hd__nand2_4 A B VGND VNB VPB VPWR Y
.ends

* Black-box entry subcircuit for sky130_fd_sc_hd__o221ai_4 abstract view
.subckt sky130_fd_sc_hd__o221ai_4 A1 A2 B1 B2 C1 VGND VNB VPB VPWR Y
.ends

* Black-box entry subcircuit for sky130_fd_sc_hd__buf_8 abstract view
.subckt sky130_fd_sc_hd__buf_8 A VGND VNB VPB VPWR X
.ends

* Black-box entry subcircuit for sky130_fd_sc_hd__or3b_2 abstract view
.subckt sky130_fd_sc_hd__or3b_2 A B C_N VGND VNB VPB VPWR X
.ends

* Black-box entry subcircuit for sky130_fd_sc_hd__o31a_4 abstract view
.subckt sky130_fd_sc_hd__o31a_4 A1 A2 A3 B1 VGND VNB VPB VPWR X
.ends

* Black-box entry subcircuit for sky130_fd_sc_hd__o311ai_1 abstract view
.subckt sky130_fd_sc_hd__o311ai_1 A1 A2 A3 B1 C1 VGND VNB VPB VPWR Y
.ends

* Black-box entry subcircuit for sky130_fd_sc_hd__o21bai_2 abstract view
.subckt sky130_fd_sc_hd__o21bai_2 A1 A2 B1_N VGND VNB VPB VPWR Y
.ends

* Black-box entry subcircuit for sky130_fd_sc_hd__nand3b_4 abstract view
.subckt sky130_fd_sc_hd__nand3b_4 A_N B C VGND VNB VPB VPWR Y
.ends

* Black-box entry subcircuit for sky130_fd_sc_hd__nand3_2 abstract view
.subckt sky130_fd_sc_hd__nand3_2 A B C VGND VNB VPB VPWR Y
.ends

* Black-box entry subcircuit for sky130_fd_sc_hd__nand2b_4 abstract view
.subckt sky130_fd_sc_hd__nand2b_4 A_N B VGND VNB VPB VPWR Y
.ends

* Black-box entry subcircuit for sky130_fd_sc_hd__nand4b_1 abstract view
.subckt sky130_fd_sc_hd__nand4b_1 A_N B C D VGND VNB VPB VPWR Y
.ends

* Black-box entry subcircuit for sky130_fd_sc_hd__a21bo_4 abstract view
.subckt sky130_fd_sc_hd__a21bo_4 A1 A2 B1_N VGND VNB VPB VPWR X
.ends

* Black-box entry subcircuit for sky130_fd_sc_hd__a32oi_2 abstract view
.subckt sky130_fd_sc_hd__a32oi_2 A1 A2 A3 B1 B2 VGND VNB VPB VPWR Y
.ends

.subckt picorv32 VGND VPWR clk eoi[0] eoi[10] eoi[11] eoi[12] eoi[13] eoi[14] eoi[15]
+ eoi[16] eoi[17] eoi[18] eoi[19] eoi[1] eoi[20] eoi[21] eoi[22] eoi[23] eoi[24] eoi[25]
+ eoi[26] eoi[27] eoi[28] eoi[29] eoi[2] eoi[30] eoi[31] eoi[3] eoi[4] eoi[5] eoi[6]
+ eoi[7] eoi[8] eoi[9] irq[0] irq[10] irq[11] irq[12] irq[13] irq[14] irq[15] irq[16]
+ irq[17] irq[18] irq[19] irq[1] irq[20] irq[21] irq[22] irq[23] irq[24] irq[25] irq[26]
+ irq[27] irq[28] irq[29] irq[2] irq[30] irq[31] irq[3] irq[4] irq[5] irq[6] irq[7]
+ irq[8] irq[9] mem_addr[0] mem_addr[10] mem_addr[11] mem_addr[12] mem_addr[13] mem_addr[14]
+ mem_addr[15] mem_addr[16] mem_addr[17] mem_addr[18] mem_addr[19] mem_addr[1] mem_addr[20]
+ mem_addr[21] mem_addr[22] mem_addr[23] mem_addr[24] mem_addr[25] mem_addr[26] mem_addr[27]
+ mem_addr[28] mem_addr[29] mem_addr[2] mem_addr[30] mem_addr[31] mem_addr[3] mem_addr[4]
+ mem_addr[5] mem_addr[6] mem_addr[7] mem_addr[8] mem_addr[9] mem_instr mem_la_addr[0]
+ mem_la_addr[10] mem_la_addr[11] mem_la_addr[12] mem_la_addr[13] mem_la_addr[14]
+ mem_la_addr[15] mem_la_addr[16] mem_la_addr[17] mem_la_addr[18] mem_la_addr[19]
+ mem_la_addr[1] mem_la_addr[20] mem_la_addr[21] mem_la_addr[22] mem_la_addr[23] mem_la_addr[24]
+ mem_la_addr[25] mem_la_addr[26] mem_la_addr[27] mem_la_addr[28] mem_la_addr[29]
+ mem_la_addr[2] mem_la_addr[30] mem_la_addr[31] mem_la_addr[3] mem_la_addr[4] mem_la_addr[5]
+ mem_la_addr[6] mem_la_addr[7] mem_la_addr[8] mem_la_addr[9] mem_la_read mem_la_wdata[0]
+ mem_la_wdata[10] mem_la_wdata[11] mem_la_wdata[12] mem_la_wdata[13] mem_la_wdata[14]
+ mem_la_wdata[15] mem_la_wdata[16] mem_la_wdata[17] mem_la_wdata[18] mem_la_wdata[19]
+ mem_la_wdata[1] mem_la_wdata[20] mem_la_wdata[21] mem_la_wdata[22] mem_la_wdata[23]
+ mem_la_wdata[24] mem_la_wdata[25] mem_la_wdata[26] mem_la_wdata[27] mem_la_wdata[28]
+ mem_la_wdata[29] mem_la_wdata[2] mem_la_wdata[30] mem_la_wdata[31] mem_la_wdata[3]
+ mem_la_wdata[4] mem_la_wdata[5] mem_la_wdata[6] mem_la_wdata[7] mem_la_wdata[8]
+ mem_la_wdata[9] mem_la_write mem_la_wstrb[0] mem_la_wstrb[1] mem_la_wstrb[2] mem_la_wstrb[3]
+ mem_rdata[0] mem_rdata[10] mem_rdata[11] mem_rdata[12] mem_rdata[13] mem_rdata[14]
+ mem_rdata[15] mem_rdata[16] mem_rdata[17] mem_rdata[18] mem_rdata[19] mem_rdata[1]
+ mem_rdata[20] mem_rdata[21] mem_rdata[22] mem_rdata[23] mem_rdata[24] mem_rdata[25]
+ mem_rdata[26] mem_rdata[27] mem_rdata[28] mem_rdata[29] mem_rdata[2] mem_rdata[30]
+ mem_rdata[31] mem_rdata[3] mem_rdata[4] mem_rdata[5] mem_rdata[6] mem_rdata[7] mem_rdata[8]
+ mem_rdata[9] mem_ready mem_valid mem_wdata[0] mem_wdata[10] mem_wdata[11] mem_wdata[12]
+ mem_wdata[13] mem_wdata[14] mem_wdata[15] mem_wdata[16] mem_wdata[17] mem_wdata[18]
+ mem_wdata[19] mem_wdata[1] mem_wdata[20] mem_wdata[21] mem_wdata[22] mem_wdata[23]
+ mem_wdata[24] mem_wdata[25] mem_wdata[26] mem_wdata[27] mem_wdata[28] mem_wdata[29]
+ mem_wdata[2] mem_wdata[30] mem_wdata[31] mem_wdata[3] mem_wdata[4] mem_wdata[5]
+ mem_wdata[6] mem_wdata[7] mem_wdata[8] mem_wdata[9] mem_wstrb[0] mem_wstrb[1] mem_wstrb[2]
+ mem_wstrb[3] pcpi_insn[0] pcpi_insn[10] pcpi_insn[11] pcpi_insn[12] pcpi_insn[13]
+ pcpi_insn[14] pcpi_insn[15] pcpi_insn[16] pcpi_insn[17] pcpi_insn[18] pcpi_insn[19]
+ pcpi_insn[1] pcpi_insn[20] pcpi_insn[21] pcpi_insn[22] pcpi_insn[23] pcpi_insn[24]
+ pcpi_insn[25] pcpi_insn[26] pcpi_insn[27] pcpi_insn[28] pcpi_insn[29] pcpi_insn[2]
+ pcpi_insn[30] pcpi_insn[31] pcpi_insn[3] pcpi_insn[4] pcpi_insn[5] pcpi_insn[6]
+ pcpi_insn[7] pcpi_insn[8] pcpi_insn[9] pcpi_rd[0] pcpi_rd[10] pcpi_rd[11] pcpi_rd[12]
+ pcpi_rd[13] pcpi_rd[14] pcpi_rd[15] pcpi_rd[16] pcpi_rd[17] pcpi_rd[18] pcpi_rd[19]
+ pcpi_rd[1] pcpi_rd[20] pcpi_rd[21] pcpi_rd[22] pcpi_rd[23] pcpi_rd[24] pcpi_rd[25]
+ pcpi_rd[26] pcpi_rd[27] pcpi_rd[28] pcpi_rd[29] pcpi_rd[2] pcpi_rd[30] pcpi_rd[31]
+ pcpi_rd[3] pcpi_rd[4] pcpi_rd[5] pcpi_rd[6] pcpi_rd[7] pcpi_rd[8] pcpi_rd[9] pcpi_ready
+ pcpi_rs1[0] pcpi_rs1[10] pcpi_rs1[11] pcpi_rs1[12] pcpi_rs1[13] pcpi_rs1[14] pcpi_rs1[15]
+ pcpi_rs1[16] pcpi_rs1[17] pcpi_rs1[18] pcpi_rs1[19] pcpi_rs1[1] pcpi_rs1[20] pcpi_rs1[21]
+ pcpi_rs1[22] pcpi_rs1[23] pcpi_rs1[24] pcpi_rs1[25] pcpi_rs1[26] pcpi_rs1[27] pcpi_rs1[28]
+ pcpi_rs1[29] pcpi_rs1[2] pcpi_rs1[30] pcpi_rs1[31] pcpi_rs1[3] pcpi_rs1[4] pcpi_rs1[5]
+ pcpi_rs1[6] pcpi_rs1[7] pcpi_rs1[8] pcpi_rs1[9] pcpi_rs2[0] pcpi_rs2[10] pcpi_rs2[11]
+ pcpi_rs2[12] pcpi_rs2[13] pcpi_rs2[14] pcpi_rs2[15] pcpi_rs2[16] pcpi_rs2[17] pcpi_rs2[18]
+ pcpi_rs2[19] pcpi_rs2[1] pcpi_rs2[20] pcpi_rs2[21] pcpi_rs2[22] pcpi_rs2[23] pcpi_rs2[24]
+ pcpi_rs2[25] pcpi_rs2[26] pcpi_rs2[27] pcpi_rs2[28] pcpi_rs2[29] pcpi_rs2[2] pcpi_rs2[30]
+ pcpi_rs2[31] pcpi_rs2[3] pcpi_rs2[4] pcpi_rs2[5] pcpi_rs2[6] pcpi_rs2[7] pcpi_rs2[8]
+ pcpi_rs2[9] pcpi_valid pcpi_wait pcpi_wr resetn trace_data[0] trace_data[10] trace_data[11]
+ trace_data[12] trace_data[13] trace_data[14] trace_data[15] trace_data[16] trace_data[17]
+ trace_data[18] trace_data[19] trace_data[1] trace_data[20] trace_data[21] trace_data[22]
+ trace_data[23] trace_data[24] trace_data[25] trace_data[26] trace_data[27] trace_data[28]
+ trace_data[29] trace_data[2] trace_data[30] trace_data[31] trace_data[32] trace_data[33]
+ trace_data[34] trace_data[35] trace_data[3] trace_data[4] trace_data[5] trace_data[6]
+ trace_data[7] trace_data[8] trace_data[9] trace_valid trap
XFILLER_67_542 VGND VGND VPWR VPWR sky130_fd_sc_hd__fill_2
X_09671_ _04460_ _02479_ net848 _04424_ VGND VGND VPWR VPWR _04470_ sky130_fd_sc_hd__a2bb2o_1
X_06883_ net850 _02480_ _02478_ _02472_ VGND VGND VPWR VPWR _02482_ sky130_fd_sc_hd__a211o_1
XFILLER_95_895 VGND VGND VPWR VPWR sky130_fd_sc_hd__fill_1
XTAP_TAPCELL_ROW_143_2934 VGND VPWR sky130_fd_sc_hd__tapvpwrvgnd_1
XFILLER_67_597 VGND VGND VPWR VPWR sky130_fd_sc_hd__fill_1
X_08622_ _03994_ VGND VGND VPWR VPWR _03995_ sky130_fd_sc_hd__inv_2
XTAP_TAPCELL_ROW_143_2945 VGND VPWR sky130_fd_sc_hd__tapvpwrvgnd_1
XFILLER_70_707 VGND VGND VPWR VPWR sky130_fd_sc_hd__decap_4
X_08553_ genblk1.genblk1.pcpi_mul.next_rs2\[12\] net1091 genblk1.genblk1.pcpi_mul.rd\[11\]
+ VGND VGND VPWR VPWR _03936_ sky130_fd_sc_hd__a21o_1
XFILLER_82_589 VGND VGND VPWR VPWR sky130_fd_sc_hd__decap_6
X_07504_ _02983_ _02995_ _03031_ _03032_ VGND VGND VPWR VPWR _03033_ sky130_fd_sc_hd__o31a_1
X_08484_ genblk1.genblk1.pcpi_mul.rd\[0\] genblk1.genblk1.pcpi_mul.next_rs2\[1\] net1101
+ VGND VGND VPWR VPWR _03878_ sky130_fd_sc_hd__nand3_1
XTAP_TAPCELL_ROW_18_692 VGND VPWR sky130_fd_sc_hd__tapvpwrvgnd_1
XFILLER_50_431 VGND VGND VPWR VPWR sky130_fd_sc_hd__decap_3
XFILLER_35_1009 VGND VGND VPWR VPWR sky130_fd_sc_hd__fill_1
X_07435_ count_instr\[51\] net1132 net1142 count_cycle\[51\] VGND VGND VPWR VPWR _02969_
+ sky130_fd_sc_hd__a22o_1
XFILLER_167_105 VGND VGND VPWR VPWR sky130_fd_sc_hd__decap_6
XFILLER_168_29 VPWR VGND VPWR VGND sky130_ef_sc_hd__decap_12
XFILLER_167_149 VPWR VGND VPWR VGND sky130_ef_sc_hd__decap_12
XFILLER_22_177 VGND VGND VPWR VPWR sky130_fd_sc_hd__decap_4
X_07366_ net1071 _02895_ _02896_ _02904_ VGND VGND VPWR VPWR _06721_ sky130_fd_sc_hd__a31o_1
X_09105_ net1840 net354 net505 VGND VGND VPWR VPWR _00303_ sky130_fd_sc_hd__mux2_1
X_07297_ _02811_ _02839_ net1060 VGND VGND VPWR VPWR _02840_ sky130_fd_sc_hd__o21a_1
XFILLER_164_856 VPWR VGND VPWR VGND sky130_ef_sc_hd__decap_12
X_09036_ net408 net2513 net513 VGND VGND VPWR VPWR _00237_ sky130_fd_sc_hd__mux2_1
XFILLER_136_558 VPWR VGND VPWR VGND sky130_ef_sc_hd__decap_12
XTAP_TAPCELL_ROW_92_2023 VGND VPWR sky130_fd_sc_hd__tapvpwrvgnd_1
XFILLER_117_750 VPWR VGND VPWR VGND sky130_ef_sc_hd__decap_12
Xhold340 cpuregs\[29\]\[27\] VGND VGND VPWR VPWR net1654 sky130_fd_sc_hd__dlygate4sd3_1
XFILLER_89_100 VGND VGND VPWR VPWR sky130_fd_sc_hd__fill_2
Xhold351 cpuregs\[8\]\[21\] VGND VGND VPWR VPWR net1665 sky130_fd_sc_hd__dlygate4sd3_1
XFILLER_89_111 VGND VGND VPWR VPWR sky130_fd_sc_hd__fill_1
Xhold362 genblk1.genblk1.pcpi_mul.pcpi_rd\[19\] VGND VGND VPWR VPWR net1676 sky130_fd_sc_hd__dlygate4sd3_1
Xhold373 cpuregs\[31\]\[18\] VGND VGND VPWR VPWR net1687 sky130_fd_sc_hd__dlygate4sd3_1
XFILLER_117_55 VGND VGND VPWR VPWR sky130_fd_sc_hd__fill_1
XTAP_TAPCELL_ROW_53_1317 VGND VPWR sky130_fd_sc_hd__tapvpwrvgnd_1
Xhold384 cpuregs\[10\]\[21\] VGND VGND VPWR VPWR net1698 sky130_fd_sc_hd__dlygate4sd3_1
XTAP_TAPCELL_ROW_53_1328 VGND VPWR sky130_fd_sc_hd__tapvpwrvgnd_1
Xhold395 cpuregs\[16\]\[17\] VGND VGND VPWR VPWR net1709 sky130_fd_sc_hd__dlygate4sd3_1
Xfanout820 net821 VGND VGND VPWR VPWR net820 sky130_fd_sc_hd__clkbuf_4
XTAP_TAPCELL_ROW_70_1620 VGND VPWR sky130_fd_sc_hd__tapvpwrvgnd_1
XFILLER_104_477 VPWR VGND VPWR VGND sky130_ef_sc_hd__decap_12
XTAP_TAPCELL_ROW_70_1631 VGND VPWR sky130_fd_sc_hd__tapvpwrvgnd_1
Xfanout831 net834 VGND VGND VPWR VPWR net831 sky130_fd_sc_hd__clkbuf_4
Xfanout842 _02702_ VGND VGND VPWR VPWR net842 sky130_fd_sc_hd__buf_2