* NGSPICE file created from cordic_system.ext - technology: sky130A

* Black-box entry subcircuit for sky130_fd_sc_hd__o21a_1 abstract view
.subckt sky130_fd_sc_hd__o21a_1 A1 A2 B1 VGND VNB VPB VPWR X
.ends

* Black-box entry subcircuit for sky130_fd_sc_hd__fill_1 abstract view
.subckt sky130_fd_sc_hd__fill_1 VGND VNB VPB VPWR
.ends

* Black-box entry subcircuit for sky130_fd_sc_hd__and2_1 abstract view
.subckt sky130_fd_sc_hd__and2_1 A B VGND VNB VPB VPWR X
.ends

* Black-box entry subcircuit for sky130_fd_sc_hd__fill_2 abstract view
.subckt sky130_fd_sc_hd__fill_2 VGND VNB VPB VPWR
.ends

* Black-box entry subcircuit for sky130_fd_sc_hd__or3_1 abstract view
.subckt sky130_fd_sc_hd__or3_1 A B C VGND VNB VPB VPWR X
.ends

* Black-box entry subcircuit for sky130_fd_sc_hd__xnor2_1 abstract view
.subckt sky130_fd_sc_hd__xnor2_1 A B VGND VNB VPB VPWR Y
.ends

* Black-box entry subcircuit for sky130_fd_sc_hd__dfxtp_1 abstract view
.subckt sky130_fd_sc_hd__dfxtp_1 CLK D VGND VNB VPB VPWR Q
.ends

* Black-box entry subcircuit for sky130_fd_sc_hd__decap_8 abstract view
.subckt sky130_fd_sc_hd__decap_8 VGND VNB VPB VPWR
.ends

* Black-box entry subcircuit for sky130_ef_sc_hd__decap_12 abstract view
.subckt sky130_ef_sc_hd__decap_12 VPWR VGND VPB VNB
.ends

* Black-box entry subcircuit for sky130_fd_sc_hd__decap_4 abstract view
.subckt sky130_fd_sc_hd__decap_4 VGND VNB VPB VPWR
.ends

* Black-box entry subcircuit for sky130_fd_sc_hd__decap_6 abstract view
.subckt sky130_fd_sc_hd__decap_6 VGND VNB VPB VPWR
.ends

* Black-box entry subcircuit for sky130_fd_sc_hd__tapvpwrvgnd_1 abstract view
.subckt sky130_fd_sc_hd__tapvpwrvgnd_1 VGND VPWR
.ends

* Black-box entry subcircuit for sky130_fd_sc_hd__decap_3 abstract view
.subckt sky130_fd_sc_hd__decap_3 VGND VNB VPB VPWR
.ends

* Black-box entry subcircuit for sky130_fd_sc_hd__mux2_1 abstract view
.subckt sky130_fd_sc_hd__mux2_1 A0 A1 S VGND VNB VPB VPWR X
.ends

* Black-box entry subcircuit for sky130_fd_sc_hd__a21oi_1 abstract view
.subckt sky130_fd_sc_hd__a21oi_1 A1 A2 B1 VGND VNB VPB VPWR Y
.ends

* Black-box entry subcircuit for sky130_fd_sc_hd__nand3_1 abstract view
.subckt sky130_fd_sc_hd__nand3_1 A B C VGND VNB VPB VPWR Y
.ends

* Black-box entry subcircuit for sky130_fd_sc_hd__or2_1 abstract view
.subckt sky130_fd_sc_hd__or2_1 A B VGND VNB VPB VPWR X
.ends

* Black-box entry subcircuit for sky130_fd_sc_hd__nand2_1 abstract view
.subckt sky130_fd_sc_hd__nand2_1 A B VGND VNB VPB VPWR Y
.ends

* Black-box entry subcircuit for sky130_fd_sc_hd__nor2_1 abstract view
.subckt sky130_fd_sc_hd__nor2_1 A B VGND VNB VPB VPWR Y
.ends

* Black-box entry subcircuit for sky130_fd_sc_hd__a22o_1 abstract view
.subckt sky130_fd_sc_hd__a22o_1 A1 A2 B1 B2 VGND VNB VPB VPWR X
.ends

* Black-box entry subcircuit for sky130_fd_sc_hd__and3_1 abstract view
.subckt sky130_fd_sc_hd__and3_1 A B C VGND VNB VPB VPWR X
.ends

* Black-box entry subcircuit for sky130_fd_sc_hd__clkbuf_4 abstract view
.subckt sky130_fd_sc_hd__clkbuf_4 A VGND VNB VPB VPWR X
.ends

* Black-box entry subcircuit for sky130_fd_sc_hd__a32o_1 abstract view
.subckt sky130_fd_sc_hd__a32o_1 A1 A2 A3 B1 B2 VGND VNB VPB VPWR X
.ends

* Black-box entry subcircuit for sky130_fd_sc_hd__mux4_1 abstract view
.subckt sky130_fd_sc_hd__mux4_1 A0 A1 A2 A3 S0 S1 VGND VNB VPB VPWR X
.ends

* Black-box entry subcircuit for sky130_fd_sc_hd__mux2_2 abstract view
.subckt sky130_fd_sc_hd__mux2_2 A0 A1 S VGND VNB VPB VPWR X
.ends

* Black-box entry subcircuit for sky130_fd_sc_hd__o21ba_1 abstract view
.subckt sky130_fd_sc_hd__o21ba_1 A1 A2 B1_N VGND VNB VPB VPWR X
.ends

* Black-box entry subcircuit for sky130_fd_sc_hd__o31a_1 abstract view
.subckt sky130_fd_sc_hd__o31a_1 A1 A2 A3 B1 VGND VNB VPB VPWR X
.ends

* Black-box entry subcircuit for sky130_fd_sc_hd__or4b_1 abstract view
.subckt sky130_fd_sc_hd__or4b_1 A B C D_N VGND VNB VPB VPWR X
.ends

* Black-box entry subcircuit for sky130_fd_sc_hd__a31o_1 abstract view
.subckt sky130_fd_sc_hd__a31o_1 A1 A2 A3 B1 VGND VNB VPB VPWR X
.ends

* Black-box entry subcircuit for sky130_fd_sc_hd__or4_1 abstract view
.subckt sky130_fd_sc_hd__or4_1 A B C D VGND VNB VPB VPWR X
.ends

* Black-box entry subcircuit for sky130_fd_sc_hd__and4_1 abstract view
.subckt sky130_fd_sc_hd__and4_1 A B C D VGND VNB VPB VPWR X
.ends

* Black-box entry subcircuit for sky130_fd_sc_hd__a21o_1 abstract view
.subckt sky130_fd_sc_hd__a21o_1 A1 A2 B1 VGND VNB VPB VPWR X
.ends

* Black-box entry subcircuit for sky130_fd_sc_hd__inv_2 abstract view
.subckt sky130_fd_sc_hd__inv_2 A VGND VNB VPB VPWR Y
.ends

* Black-box entry subcircuit for sky130_fd_sc_hd__nand2_2 abstract view
.subckt sky130_fd_sc_hd__nand2_2 A B VGND VNB VPB VPWR Y
.ends

* Black-box entry subcircuit for sky130_fd_sc_hd__dfrtp_2 abstract view
.subckt sky130_fd_sc_hd__dfrtp_2 CLK D RESET_B VGND VNB VPB VPWR Q
.ends

* Black-box entry subcircuit for sky130_fd_sc_hd__dfrtp_1 abstract view
.subckt sky130_fd_sc_hd__dfrtp_1 CLK D RESET_B VGND VNB VPB VPWR Q
.ends

* Black-box entry subcircuit for sky130_fd_sc_hd__o311a_1 abstract view
.subckt sky130_fd_sc_hd__o311a_1 A1 A2 A3 B1 C1 VGND VNB VPB VPWR X
.ends

* Black-box entry subcircuit for sky130_fd_sc_hd__o32a_1 abstract view
.subckt sky130_fd_sc_hd__o32a_1 A1 A2 A3 B1 B2 VGND VNB VPB VPWR X
.ends

* Black-box entry subcircuit for sky130_fd_sc_hd__a2bb2o_1 abstract view
.subckt sky130_fd_sc_hd__a2bb2o_1 A1_N A2_N B1 B2 VGND VNB VPB VPWR X
.ends

* Black-box entry subcircuit for sky130_fd_sc_hd__buf_2 abstract view
.subckt sky130_fd_sc_hd__buf_2 A VGND VNB VPB VPWR X
.ends

* Black-box entry subcircuit for sky130_fd_sc_hd__or3b_1 abstract view
.subckt sky130_fd_sc_hd__or3b_1 A B C_N VGND VNB VPB VPWR X
.ends

* Black-box entry subcircuit for sky130_fd_sc_hd__o211a_1 abstract view
.subckt sky130_fd_sc_hd__o211a_1 A1 A2 B1 C1 VGND VNB VPB VPWR X
.ends

* Black-box entry subcircuit for sky130_fd_sc_hd__a21bo_1 abstract view
.subckt sky130_fd_sc_hd__a21bo_1 A1 A2 B1_N VGND VNB VPB VPWR X
.ends

* Black-box entry subcircuit for sky130_fd_sc_hd__a221o_1 abstract view
.subckt sky130_fd_sc_hd__a221o_1 A1 A2 B1 B2 C1 VGND VNB VPB VPWR X
.ends

* Black-box entry subcircuit for sky130_fd_sc_hd__dfrtp_4 abstract view
.subckt sky130_fd_sc_hd__dfrtp_4 CLK D RESET_B VGND VNB VPB VPWR Q
.ends

* Black-box entry subcircuit for sky130_fd_sc_hd__and3b_1 abstract view
.subckt sky130_fd_sc_hd__and3b_1 A_N B C VGND VNB VPB VPWR X
.ends

* Black-box entry subcircuit for sky130_fd_sc_hd__nand4_1 abstract view
.subckt sky130_fd_sc_hd__nand4_1 A B C D VGND VNB VPB VPWR Y
.ends

* Black-box entry subcircuit for sky130_fd_sc_hd__dfxtp_2 abstract view
.subckt sky130_fd_sc_hd__dfxtp_2 CLK D VGND VNB VPB VPWR Q
.ends

* Black-box entry subcircuit for sky130_fd_sc_hd__and4b_1 abstract view
.subckt sky130_fd_sc_hd__and4b_1 A_N B C D VGND VNB VPB VPWR X
.ends

* Black-box entry subcircuit for sky130_fd_sc_hd__o211ai_2 abstract view
.subckt sky130_fd_sc_hd__o211ai_2 A1 A2 B1 C1 VGND VNB VPB VPWR Y
.ends

* Black-box entry subcircuit for sky130_fd_sc_hd__o21ai_1 abstract view
.subckt sky130_fd_sc_hd__o21ai_1 A1 A2 B1 VGND VNB VPB VPWR Y
.ends

* Black-box entry subcircuit for sky130_fd_sc_hd__xor2_1 abstract view
.subckt sky130_fd_sc_hd__xor2_1 A B VGND VNB VPB VPWR X
.ends

* Black-box entry subcircuit for sky130_fd_sc_hd__o21ai_2 abstract view
.subckt sky130_fd_sc_hd__o21ai_2 A1 A2 B1 VGND VNB VPB VPWR Y
.ends

* Black-box entry subcircuit for sky130_fd_sc_hd__a21boi_1 abstract view
.subckt sky130_fd_sc_hd__a21boi_1 A1 A2 B1_N VGND VNB VPB VPWR Y
.ends

* Black-box entry subcircuit for sky130_fd_sc_hd__clkbuf_1 abstract view
.subckt sky130_fd_sc_hd__clkbuf_1 A VGND VNB VPB VPWR X
.ends

* Black-box entry subcircuit for sky130_fd_sc_hd__nor3b_1 abstract view
.subckt sky130_fd_sc_hd__nor3b_1 A B C_N VGND VNB VPB VPWR Y
.ends

* Black-box entry subcircuit for sky130_fd_sc_hd__a211o_1 abstract view
.subckt sky130_fd_sc_hd__a211o_1 A1 A2 B1 C1 VGND VNB VPB VPWR X
.ends

* Black-box entry subcircuit for sky130_fd_sc_hd__mux4_2 abstract view
.subckt sky130_fd_sc_hd__mux4_2 A0 A1 A2 A3 S0 S1 VGND VNB VPB VPWR X
.ends

* Black-box entry subcircuit for sky130_fd_sc_hd__o22a_1 abstract view
.subckt sky130_fd_sc_hd__o22a_1 A1 A2 B1 B2 VGND VNB VPB VPWR X
.ends

* Black-box entry subcircuit for sky130_fd_sc_hd__o221a_1 abstract view
.subckt sky130_fd_sc_hd__o221a_1 A1 A2 B1 B2 C1 VGND VNB VPB VPWR X
.ends

* Black-box entry subcircuit for sky130_fd_sc_hd__a211oi_1 abstract view
.subckt sky130_fd_sc_hd__a211oi_1 A1 A2 B1 C1 VGND VNB VPB VPWR Y
.ends

* Black-box entry subcircuit for sky130_fd_sc_hd__xnor2_2 abstract view
.subckt sky130_fd_sc_hd__xnor2_2 A B VGND VNB VPB VPWR Y
.ends

* Black-box entry subcircuit for sky130_fd_sc_hd__nor4_1 abstract view
.subckt sky130_fd_sc_hd__nor4_1 A B C D VGND VNB VPB VPWR Y
.ends

* Black-box entry subcircuit for sky130_fd_sc_hd__dfstp_1 abstract view
.subckt sky130_fd_sc_hd__dfstp_1 CLK D SET_B VGND VNB VPB VPWR Q
.ends

* Black-box entry subcircuit for sky130_fd_sc_hd__o2bb2ai_1 abstract view
.subckt sky130_fd_sc_hd__o2bb2ai_1 A1_N A2_N B1 B2 VGND VNB VPB VPWR Y
.ends

* Black-box entry subcircuit for sky130_fd_sc_hd__o41a_1 abstract view
.subckt sky130_fd_sc_hd__o41a_1 A1 A2 A3 A4 B1 VGND VNB VPB VPWR X
.ends

* Black-box entry subcircuit for sky130_fd_sc_hd__o21bai_1 abstract view
.subckt sky130_fd_sc_hd__o21bai_1 A1 A2 B1_N VGND VNB VPB VPWR Y
.ends

* Black-box entry subcircuit for sky130_fd_sc_hd__clkbuf_2 abstract view
.subckt sky130_fd_sc_hd__clkbuf_2 A VGND VNB VPB VPWR X
.ends

* Black-box entry subcircuit for sky130_fd_sc_hd__buf_1 abstract view
.subckt sky130_fd_sc_hd__buf_1 A VGND VNB VPB VPWR X
.ends

* Black-box entry subcircuit for sky130_fd_sc_hd__o22ai_1 abstract view
.subckt sky130_fd_sc_hd__o22ai_1 A1 A2 B1 B2 VGND VNB VPB VPWR Y
.ends

* Black-box entry subcircuit for sky130_fd_sc_hd__o2bb2a_1 abstract view
.subckt sky130_fd_sc_hd__o2bb2a_1 A1_N A2_N B1 B2 VGND VNB VPB VPWR X
.ends

* Black-box entry subcircuit for sky130_fd_sc_hd__nand3b_2 abstract view
.subckt sky130_fd_sc_hd__nand3b_2 A_N B C VGND VNB VPB VPWR Y
.ends

* Black-box entry subcircuit for sky130_fd_sc_hd__nand2b_1 abstract view
.subckt sky130_fd_sc_hd__nand2b_1 A_N B VGND VNB VPB VPWR Y
.ends

* Black-box entry subcircuit for sky130_fd_sc_hd__and2b_1 abstract view
.subckt sky130_fd_sc_hd__and2b_1 A_N B VGND VNB VPB VPWR X
.ends

* Black-box entry subcircuit for sky130_fd_sc_hd__a2111o_1 abstract view
.subckt sky130_fd_sc_hd__a2111o_1 A1 A2 B1 C1 D1 VGND VNB VPB VPWR X
.ends

* Black-box entry subcircuit for sky130_fd_sc_hd__o31ai_1 abstract view
.subckt sky130_fd_sc_hd__o31ai_1 A1 A2 A3 B1 VGND VNB VPB VPWR Y
.ends

* Black-box entry subcircuit for sky130_fd_sc_hd__or4_2 abstract view
.subckt sky130_fd_sc_hd__or4_2 A B C D VGND VNB VPB VPWR X
.ends

* Black-box entry subcircuit for sky130_fd_sc_hd__a311o_1 abstract view
.subckt sky130_fd_sc_hd__a311o_1 A1 A2 A3 B1 C1 VGND VNB VPB VPWR X
.ends

* Black-box entry subcircuit for sky130_fd_sc_hd__a21oi_2 abstract view
.subckt sky130_fd_sc_hd__a21oi_2 A1 A2 B1 VGND VNB VPB VPWR Y
.ends

* Black-box entry subcircuit for sky130_fd_sc_hd__xor2_2 abstract view
.subckt sky130_fd_sc_hd__xor2_2 A B VGND VNB VPB VPWR X
.ends

* Black-box entry subcircuit for sky130_fd_sc_hd__or4bb_1 abstract view
.subckt sky130_fd_sc_hd__or4bb_1 A B C_N D_N VGND VNB VPB VPWR X
.ends

* Black-box entry subcircuit for sky130_fd_sc_hd__a31oi_1 abstract view
.subckt sky130_fd_sc_hd__a31oi_1 A1 A2 A3 B1 VGND VNB VPB VPWR Y
.ends

* Black-box entry subcircuit for sky130_fd_sc_hd__dlymetal6s2s_1 abstract view
.subckt sky130_fd_sc_hd__dlymetal6s2s_1 A VGND VNB VPB VPWR X
.ends

* Black-box entry subcircuit for sky130_fd_sc_hd__or3_2 abstract view
.subckt sky130_fd_sc_hd__or3_2 A B C VGND VNB VPB VPWR X
.ends

* Black-box entry subcircuit for sky130_fd_sc_hd__buf_4 abstract view
.subckt sky130_fd_sc_hd__buf_4 A VGND VNB VPB VPWR X
.ends

* Black-box entry subcircuit for sky130_fd_sc_hd__o21bai_2 abstract view
.subckt sky130_fd_sc_hd__o21bai_2 A1 A2 B1_N VGND VNB VPB VPWR Y
.ends

* Black-box entry subcircuit for sky130_fd_sc_hd__nand4_2 abstract view
.subckt sky130_fd_sc_hd__nand4_2 A B C D VGND VNB VPB VPWR Y
.ends

* Black-box entry subcircuit for sky130_fd_sc_hd__a22oi_1 abstract view
.subckt sky130_fd_sc_hd__a22oi_1 A1 A2 B1 B2 VGND VNB VPB VPWR Y
.ends

* Black-box entry subcircuit for sky130_fd_sc_hd__o31ai_4 abstract view
.subckt sky130_fd_sc_hd__o31ai_4 A1 A2 A3 B1 VGND VNB VPB VPWR Y
.ends

* Black-box entry subcircuit for sky130_fd_sc_hd__o21a_2 abstract view
.subckt sky130_fd_sc_hd__o21a_2 A1 A2 B1 VGND VNB VPB VPWR X
.ends

* Black-box entry subcircuit for sky130_fd_sc_hd__a21oi_4 abstract view
.subckt sky130_fd_sc_hd__a21oi_4 A1 A2 B1 VGND VNB VPB VPWR Y
.ends

* Black-box entry subcircuit for sky130_fd_sc_hd__or2_2 abstract view
.subckt sky130_fd_sc_hd__or2_2 A B VGND VNB VPB VPWR X
.ends

* Black-box entry subcircuit for sky130_fd_sc_hd__and4bb_1 abstract view
.subckt sky130_fd_sc_hd__and4bb_1 A_N B_N C D VGND VNB VPB VPWR X
.ends

* Black-box entry subcircuit for sky130_fd_sc_hd__nor3_1 abstract view
.subckt sky130_fd_sc_hd__nor3_1 A B C VGND VNB VPB VPWR Y
.ends

* Black-box entry subcircuit for sky130_fd_sc_hd__conb_1 abstract view
.subckt sky130_fd_sc_hd__conb_1 VGND VNB VPB VPWR HI LO
.ends

* Black-box entry subcircuit for sky130_fd_sc_hd__nor2_2 abstract view
.subckt sky130_fd_sc_hd__nor2_2 A B VGND VNB VPB VPWR Y
.ends

* Black-box entry subcircuit for sky130_fd_sc_hd__a41o_1 abstract view
.subckt sky130_fd_sc_hd__a41o_1 A1 A2 A3 A4 B1 VGND VNB VPB VPWR X
.ends

* Black-box entry subcircuit for sky130_fd_sc_hd__nand2b_2 abstract view
.subckt sky130_fd_sc_hd__nand2b_2 A_N B VGND VNB VPB VPWR Y
.ends

* Black-box entry subcircuit for sky130_fd_sc_hd__nand3b_1 abstract view
.subckt sky130_fd_sc_hd__nand3b_1 A_N B C VGND VNB VPB VPWR Y
.ends

* Black-box entry subcircuit for sky130_fd_sc_hd__o211ai_1 abstract view
.subckt sky130_fd_sc_hd__o211ai_1 A1 A2 B1 C1 VGND VNB VPB VPWR Y
.ends

* Black-box entry subcircuit for sky130_fd_sc_hd__and4b_4 abstract view
.subckt sky130_fd_sc_hd__and4b_4 A_N B C D VGND VNB VPB VPWR X
.ends

* Black-box entry subcircuit for sky130_fd_sc_hd__o32ai_1 abstract view
.subckt sky130_fd_sc_hd__o32ai_1 A1 A2 A3 B1 B2 VGND VNB VPB VPWR Y
.ends

* Black-box entry subcircuit for sky130_fd_sc_hd__or4_4 abstract view
.subckt sky130_fd_sc_hd__or4_4 A B C D VGND VNB VPB VPWR X
.ends

* Black-box entry subcircuit for sky130_fd_sc_hd__and2_2 abstract view
.subckt sky130_fd_sc_hd__and2_2 A B VGND VNB VPB VPWR X
.ends

* Black-box entry subcircuit for sky130_fd_sc_hd__a311o_2 abstract view
.subckt sky130_fd_sc_hd__a311o_2 A1 A2 A3 B1 C1 VGND VNB VPB VPWR X
.ends

* Black-box entry subcircuit for sky130_fd_sc_hd__o2111a_1 abstract view
.subckt sky130_fd_sc_hd__o2111a_1 A1 A2 B1 C1 D1 VGND VNB VPB VPWR X
.ends

* Black-box entry subcircuit for sky130_fd_sc_hd__a311oi_1 abstract view
.subckt sky130_fd_sc_hd__a311oi_1 A1 A2 A3 B1 C1 VGND VNB VPB VPWR Y
.ends

* Black-box entry subcircuit for sky130_fd_sc_hd__and4bb_4 abstract view
.subckt sky130_fd_sc_hd__and4bb_4 A_N B_N C D VGND VNB VPB VPWR X
.ends

* Black-box entry subcircuit for sky130_fd_sc_hd__diode_2 abstract view
.subckt sky130_fd_sc_hd__diode_2 DIODE VGND VNB VPB VPWR
.ends

* Black-box entry subcircuit for sky130_fd_sc_hd__nor4b_1 abstract view
.subckt sky130_fd_sc_hd__nor4b_1 A B C D_N VGND VNB VPB VPWR Y
.ends

* Black-box entry subcircuit for sky130_fd_sc_hd__nor4b_2 abstract view
.subckt sky130_fd_sc_hd__nor4b_2 A B C D_N VGND VNB VPB VPWR Y
.ends

* Black-box entry subcircuit for sky130_fd_sc_hd__o31ai_2 abstract view
.subckt sky130_fd_sc_hd__o31ai_2 A1 A2 A3 B1 VGND VNB VPB VPWR Y
.ends

* Black-box entry subcircuit for sky130_fd_sc_hd__o2111ai_2 abstract view
.subckt sky130_fd_sc_hd__o2111ai_2 A1 A2 B1 C1 D1 VGND VNB VPB VPWR Y
.ends

.subckt cordic_system VGND VPWR aclk araddr[0] araddr[10] araddr[11] araddr[12] araddr[13]
+ araddr[14] araddr[15] araddr[16] araddr[17] araddr[18] araddr[19] araddr[1] araddr[20]
+ araddr[21] araddr[22] araddr[23] araddr[24] araddr[25] araddr[26] araddr[27] araddr[28]
+ araddr[29] araddr[2] araddr[30] araddr[31] araddr[3] araddr[4] araddr[5] araddr[6]
+ araddr[7] araddr[8] araddr[9] aresetn arready arvalid awaddr[0] awaddr[10] awaddr[11]
+ awaddr[12] awaddr[13] awaddr[14] awaddr[15] awaddr[16] awaddr[17] awaddr[18] awaddr[19]
+ awaddr[1] awaddr[20] awaddr[21] awaddr[22] awaddr[23] awaddr[24] awaddr[25] awaddr[26]
+ awaddr[27] awaddr[28] awaddr[29] awaddr[2] awaddr[30] awaddr[31] awaddr[3] awaddr[4]
+ awaddr[5] awaddr[6] awaddr[7] awaddr[8] awaddr[9] awready awvalid bready bresp[0]
+ bresp[1] bvalid rdata[0] rdata[10] rdata[11] rdata[12] rdata[13] rdata[14] rdata[15]
+ rdata[16] rdata[17] rdata[18] rdata[19] rdata[1] rdata[20] rdata[21] rdata[22] rdata[23]
+ rdata[24] rdata[25] rdata[26] rdata[27] rdata[28] rdata[29] rdata[2] rdata[30] rdata[31]
+ rdata[3] rdata[4] rdata[5] rdata[6] rdata[7] rdata[8] rdata[9] rready rresp[0] rresp[1]
+ rvalid wdata[0] wdata[10] wdata[11] wdata[12] wdata[13] wdata[14] wdata[15] wdata[16]
+ wdata[17] wdata[18] wdata[19] wdata[1] wdata[20] wdata[21] wdata[22] wdata[23] wdata[24]
+ wdata[25] wdata[26] wdata[27] wdata[28] wdata[29] wdata[2] wdata[30] wdata[31] wdata[3]
+ wdata[4] wdata[5] wdata[6] wdata[7] wdata[8] wdata[9] wready wstrb[0] wstrb[1] wstrb[2]
+ wstrb[3] wvalid
X_3155_ _1318_ _1441_ _1329_ VGND VGND VPWR VPWR _1442_ sky130_fd_sc_hd__o21a_1
XFILLER_39_255 VGND VGND VPWR VPWR sky130_fd_sc_hd__fill_1
X_3086_ _1387_ _1388_ VGND VGND VPWR VPWR _1389_ sky130_fd_sc_hd__and2_1
XFILLER_35_472 VGND VGND VPWR VPWR sky130_fd_sc_hd__fill_1
XFILLER_22_111 VGND VGND VPWR VPWR sky130_fd_sc_hd__fill_2
X_3988_ _1939_ _1941_ _1997_ VGND VGND VPWR VPWR _1998_ sky130_fd_sc_hd__or3_1
X_2939_ _1103_ _1241_ VGND VGND VPWR VPWR _1242_ sky130_fd_sc_hd__xnor2_1
X_4609_ net357 _0341_ VGND VGND VPWR VPWR axi_controller.reg_input_data\[27\] sky130_fd_sc_hd__dfxtp_1
XFILLER_45_225 VGND VGND VPWR VPWR sky130_fd_sc_hd__fill_2
XFILLER_33_409 VGND VGND VPWR VPWR sky130_fd_sc_hd__fill_1
XFILLER_26_74 VGND VGND VPWR VPWR sky130_fd_sc_hd__decap_8
XFILLER_26_85 VPWR VGND VPWR VGND sky130_ef_sc_hd__decap_12
XFILLER_13_166 VGND VGND VPWR VPWR sky130_fd_sc_hd__fill_2
XFILLER_9_148 VGND VGND VPWR VPWR sky130_fd_sc_hd__decap_8
XFILLER_42_73 VGND VGND VPWR VPWR sky130_fd_sc_hd__decap_8
XFILLER_5_387 VGND VGND VPWR VPWR sky130_fd_sc_hd__decap_4
XFILLER_3_23 VPWR VGND VPWR VGND sky130_ef_sc_hd__decap_12
XFILLER_3_89 VGND VGND VPWR VPWR sky130_fd_sc_hd__decap_6
XFILLER_37_715 VGND VGND VPWR VPWR sky130_fd_sc_hd__fill_1
XTAP_TAPCELL_ROW_19_401 VGND VPWR sky130_fd_sc_hd__tapvpwrvgnd_1
XFILLER_37_726 VGND VGND VPWR VPWR sky130_fd_sc_hd__fill_2
XFILLER_24_409 VGND VGND VPWR VPWR sky130_fd_sc_hd__decap_3
X_4960_ net399 _0589_ VGND VGND VPWR VPWR net139 sky130_fd_sc_hd__dfxtp_1
XFILLER_17_461 VGND VGND VPWR VPWR sky130_fd_sc_hd__fill_1
X_4891_ net358 _0044_ VGND VGND VPWR VPWR cordic_inst.deg_handler_inst.theta_norm\[23\]
+ sky130_fd_sc_hd__dfxtp_1
X_3911_ axi_controller.read_addr_reg\[12\] net5 net198 VGND VGND VPWR VPWR _0278_
+ sky130_fd_sc_hd__mux2_1
XFILLER_32_453 VPWR VGND VPWR VGND sky130_ef_sc_hd__decap_12
XFILLER_32_475 VGND VGND VPWR VPWR sky130_fd_sc_hd__fill_1
X_3842_ net145 net70 net194 VGND VGND VPWR VPWR _1928_ sky130_fd_sc_hd__a21oi_1
X_3773_ axi_controller.reg_input_data\[30\] axi_controller.reg_input_data\[29\] _1877_
+ VGND VGND VPWR VPWR _1878_ sky130_fd_sc_hd__nand3_1
X_2724_ _0925_ _1042_ VGND VGND VPWR VPWR _1043_ sky130_fd_sc_hd__or2_1
X_2655_ cordic_inst.cordic_inst.y\[25\] _0988_ VGND VGND VPWR VPWR _0990_ sky130_fd_sc_hd__nand2_1
X_2586_ net250 _0770_ VGND VGND VPWR VPWR _0921_ sky130_fd_sc_hd__nor2_1
X_4325_ net121 net192 net156 axi_controller.result_out\[18\] VGND VGND VPWR VPWR _0576_
+ sky130_fd_sc_hd__a22o_1
X_4256_ net313 _2214_ _2215_ VGND VGND VPWR VPWR _2216_ sky130_fd_sc_hd__and3_1
Xfanout149 _1790_ VGND VGND VPWR VPWR net149 sky130_fd_sc_hd__clkbuf_4
XFILLER_28_715 VGND VGND VPWR VPWR sky130_fd_sc_hd__decap_4
X_4187_ cordic_inst.cordic_inst.cos_out\[18\] _2147_ VGND VGND VPWR VPWR _2155_ sky130_fd_sc_hd__or2_1
X_3207_ cordic_inst.cordic_inst.y\[26\] cordic_inst.cordic_inst.sin_out\[26\] net209
+ VGND VGND VPWR VPWR _0492_ sky130_fd_sc_hd__mux2_1
X_3138_ net183 _1421_ _1429_ net165 cordic_inst.cordic_inst.x\[20\] VGND VGND VPWR
+ VPWR _0518_ sky130_fd_sc_hd__a32o_1
XFILLER_43_729 VPWR VGND VPWR VGND sky130_ef_sc_hd__decap_12
XFILLER_42_206 VPWR VGND VPWR VGND sky130_ef_sc_hd__decap_12
X_3069_ cordic_inst.cordic_inst.x\[23\] _1334_ _1371_ VGND VGND VPWR VPWR _1372_ sky130_fd_sc_hd__a21oi_1
XFILLER_36_770 VGND VGND VPWR VPWR sky130_fd_sc_hd__fill_1
XFILLER_11_615 VGND VGND VPWR VPWR sky130_fd_sc_hd__fill_1
XTAP_TAPCELL_ROW_5_195 VGND VPWR sky130_fd_sc_hd__tapvpwrvgnd_1
XTAP_TAPCELL_ROW_5_184 VGND VPWR sky130_fd_sc_hd__tapvpwrvgnd_1
XFILLER_46_567 VGND VGND VPWR VPWR sky130_fd_sc_hd__decap_4
XFILLER_46_545 VPWR VGND VPWR VGND sky130_ef_sc_hd__decap_12
XFILLER_46_589 VGND VGND VPWR VPWR sky130_fd_sc_hd__fill_2
XTAP_TAPCELL_ROW_44_779 VGND VPWR sky130_fd_sc_hd__tapvpwrvgnd_1
XFILLER_14_442 VGND VGND VPWR VPWR sky130_fd_sc_hd__decap_8
XTAP_TAPCELL_ROW_24_470 VGND VPWR sky130_fd_sc_hd__tapvpwrvgnd_1
XTAP_TAPCELL_ROW_24_481 VGND VPWR sky130_fd_sc_hd__tapvpwrvgnd_1
X_2440_ _0719_ _0722_ _0727_ _0720_ net285 net235 VGND VGND VPWR VPWR _0775_ sky130_fd_sc_hd__mux4_1
X_2371_ net241 net302 VGND VGND VPWR VPWR _0706_ sky130_fd_sc_hd__nand2_1
X_4110_ cordic_inst.cordic_inst.sin_out\[10\] net258 _2086_ VGND VGND VPWR VPWR _2087_
+ sky130_fd_sc_hd__and3_1
X_4041_ cordic_inst.cordic_inst.cos_out\[0\] cordic_inst.cordic_inst.sin_out\[0\]
+ net316 VGND VGND VPWR VPWR _2028_ sky130_fd_sc_hd__mux2_2
X_4943_ net394 _0572_ VGND VGND VPWR VPWR net126 sky130_fd_sc_hd__dfxtp_1
X_4874_ net365 axi_controller.reg_input_data\[6\] VGND VGND VPWR VPWR cordic_inst.deg_handler_inst.theta_norm\[6\]
+ sky130_fd_sc_hd__dfxtp_1
X_3825_ cordic_inst.cordic_inst.start cordic_inst.cordic_inst.state\[1\] cordic_inst.cordic_inst.state\[0\]
+ VGND VGND VPWR VPWR _1917_ sky130_fd_sc_hd__o21ba_1
XFILLER_20_456 VGND VGND VPWR VPWR sky130_fd_sc_hd__fill_1
X_3756_ cordic_inst.deg_handler_inst.theta_norm\[29\] cordic_inst.deg_handler_inst.theta_norm\[28\]
+ _1859_ net254 VGND VGND VPWR VPWR _1863_ sky130_fd_sc_hd__o31a_1
X_2707_ _0854_ _0858_ _1029_ VGND VGND VPWR VPWR _1030_ sky130_fd_sc_hd__or3_1
X_3687_ net252 _1819_ VGND VGND VPWR VPWR _1820_ sky130_fd_sc_hd__nand2_1
X_2638_ _0869_ _0968_ _0970_ VGND VGND VPWR VPWR _0973_ sky130_fd_sc_hd__or3_1
X_2569_ _0889_ _0903_ VGND VGND VPWR VPWR _0904_ sky130_fd_sc_hd__nor2_1
X_4308_ axi_controller.state\[0\] axi_controller.state\[1\] _0621_ net144 VGND VGND
+ VPWR VPWR _2255_ sky130_fd_sc_hd__or4b_1
X_4239_ cordic_inst.cordic_inst.sin_out\[25\] net257 _2199_ net231 VGND VGND VPWR
+ VPWR _2201_ sky130_fd_sc_hd__a31o_1
XTAP_TAPCELL_ROW_2_143 VGND VPWR sky130_fd_sc_hd__tapvpwrvgnd_1
XFILLER_43_559 VGND VGND VPWR VPWR sky130_fd_sc_hd__fill_1
XFILLER_11_412 VGND VGND VPWR VPWR sky130_fd_sc_hd__fill_2
XTAP_TAPCELL_ROW_41_727 VGND VPWR sky130_fd_sc_hd__tapvpwrvgnd_1
XTAP_TAPCELL_ROW_41_738 VGND VPWR sky130_fd_sc_hd__tapvpwrvgnd_1
XFILLER_11_445 VGND VGND VPWR VPWR sky130_fd_sc_hd__decap_3
XFILLER_7_449 VGND VGND VPWR VPWR sky130_fd_sc_hd__decap_4
XFILLER_2_132 VGND VGND VPWR VPWR sky130_fd_sc_hd__fill_2
XFILLER_38_309 VGND VGND VPWR VPWR sky130_fd_sc_hd__fill_1
XFILLER_0_57 VGND VGND VPWR VPWR sky130_fd_sc_hd__fill_2
XTAP_TAPCELL_ROW_29_551 VGND VPWR sky130_fd_sc_hd__tapvpwrvgnd_1
XFILLER_9_44 VGND VGND VPWR VPWR sky130_fd_sc_hd__decap_4
XFILLER_30_732 VGND VGND VPWR VPWR sky130_fd_sc_hd__fill_1
X_3610_ cordic_inst.deg_handler_inst.theta_abs\[24\] cordic_inst.deg_handler_inst.theta_abs\[25\]
+ cordic_inst.deg_handler_inst.theta_abs\[26\] cordic_inst.deg_handler_inst.theta_abs\[27\]
+ VGND VGND VPWR VPWR _1778_ sky130_fd_sc_hd__or4_1
X_4590_ net382 _0322_ VGND VGND VPWR VPWR axi_controller.write_addr_reg\[23\] sky130_fd_sc_hd__dfxtp_1
X_3541_ net182 _1601_ _1749_ _1750_ VGND VGND VPWR VPWR _0436_ sky130_fd_sc_hd__a31o_1
X_3472_ cordic_inst.cordic_inst.angle\[21\] net173 net162 cordic_inst.cordic_inst.z\[21\]
+ VGND VGND VPWR VPWR _1701_ sky130_fd_sc_hd__a22o_1
X_2423_ _0684_ _0693_ _0750_ _0756_ VGND VGND VPWR VPWR _0758_ sky130_fd_sc_hd__and4_1
X_2354_ net284 _0685_ _0688_ VGND VGND VPWR VPWR _0689_ sky130_fd_sc_hd__a21o_1
X_2285_ net349 VGND VGND VPWR VPWR _0621_ sky130_fd_sc_hd__inv_2
X_4024_ net103 _1963_ VGND VGND VPWR VPWR _2019_ sky130_fd_sc_hd__nand2_2
XFILLER_25_559 VGND VGND VPWR VPWR sky130_fd_sc_hd__fill_1
X_4926_ net372 _0026_ VGND VGND VPWR VPWR cordic_inst.deg_handler_inst.theta_abs\[26\]
+ sky130_fd_sc_hd__dfxtp_1
XFILLER_40_529 VGND VGND VPWR VPWR sky130_fd_sc_hd__decap_3
X_4857_ net378 _0066_ VGND VGND VPWR VPWR cordic_inst.cordic_inst.angle\[21\] sky130_fd_sc_hd__dfxtp_1
X_3808_ axi_controller.reg_input_data\[26\] axi_controller.reg_input_data\[25\] _1900_
+ VGND VGND VPWR VPWR _1905_ sky130_fd_sc_hd__and3_1
X_4788_ net404 _0515_ _0210_ VGND VGND VPWR VPWR cordic_inst.cordic_inst.x\[17\] sky130_fd_sc_hd__dfrtp_2
X_3739_ cordic_inst.deg_handler_inst.theta_norm\[23\] cordic_inst.deg_handler_inst.theta_norm\[22\]
+ _1849_ VGND VGND VPWR VPWR _1852_ sky130_fd_sc_hd__or3_1
XTAP_TAPCELL_ROW_7_224 VGND VPWR sky130_fd_sc_hd__tapvpwrvgnd_1
XFILLER_0_669 VGND VGND VPWR VPWR sky130_fd_sc_hd__decap_3
XTAP_TAPCELL_ROW_46_819 VGND VPWR sky130_fd_sc_hd__tapvpwrvgnd_1
XTAP_TAPCELL_ROW_46_808 VGND VPWR sky130_fd_sc_hd__tapvpwrvgnd_1
XFILLER_44_813 VPWR VGND VPWR VGND sky130_ef_sc_hd__decap_12
XFILLER_18_75 VGND VGND VPWR VPWR sky130_fd_sc_hd__decap_8
XFILLER_28_353 VGND VGND VPWR VPWR sky130_fd_sc_hd__decap_8
XFILLER_16_548 VGND VGND VPWR VPWR sky130_fd_sc_hd__decap_8
XFILLER_18_97 VGND VGND VPWR VPWR sky130_fd_sc_hd__decap_6
XTAP_TAPCELL_ROW_26_510 VGND VPWR sky130_fd_sc_hd__tapvpwrvgnd_1
XFILLER_34_41 VPWR VGND VPWR VGND sky130_ef_sc_hd__decap_12
XFILLER_12_743 VGND VGND VPWR VPWR sky130_fd_sc_hd__fill_1
XFILLER_34_85 VPWR VGND VPWR VGND sky130_ef_sc_hd__decap_12
XFILLER_7_268 VPWR VGND VPWR VGND sky130_ef_sc_hd__decap_12
XFILLER_3_485 VPWR VGND VPWR VGND sky130_ef_sc_hd__decap_12
XFILLER_38_117 VGND VGND VPWR VPWR sky130_fd_sc_hd__fill_2
XFILLER_34_312 VGND VGND VPWR VPWR sky130_fd_sc_hd__decap_3
X_2972_ cordic_inst.cordic_inst.x\[3\] _1262_ VGND VGND VPWR VPWR _1275_ sky130_fd_sc_hd__or2_1
X_4711_ net379 _0438_ _0133_ VGND VGND VPWR VPWR cordic_inst.cordic_inst.z\[4\] sky130_fd_sc_hd__dfrtp_1
X_4642_ net403 _0373_ net340 VGND VGND VPWR VPWR axi_controller.result_out\[19\] sky130_fd_sc_hd__dfrtp_1
X_4573_ net364 _0305_ VGND VGND VPWR VPWR axi_controller.write_addr_reg\[6\] sky130_fd_sc_hd__dfxtp_1
XTAP_TAPCELL_ROW_12_292 VGND VPWR sky130_fd_sc_hd__tapvpwrvgnd_1
X_3524_ net175 _1610_ VGND VGND VPWR VPWR _1739_ sky130_fd_sc_hd__or2_1
X_3455_ _1686_ _1687_ VGND VGND VPWR VPWR _1688_ sky130_fd_sc_hd__nor2_1
X_2406_ _0679_ net218 _0739_ net284 VGND VGND VPWR VPWR _0741_ sky130_fd_sc_hd__a22o_1
XFILLER_39_19 VPWR VGND VPWR VGND sky130_ef_sc_hd__decap_12
X_3386_ _1540_ _1546_ _1621_ _1624_ _1539_ VGND VGND VPWR VPWR _1625_ sky130_fd_sc_hd__o311a_1
X_2337_ net278 _0670_ _0671_ _0631_ VGND VGND VPWR VPWR _0672_ sky130_fd_sc_hd__o31a_1
X_2268_ cordic_inst.cordic_inst.cos_out\[26\] VGND VGND VPWR VPWR _0605_ sky130_fd_sc_hd__inv_2
X_4007_ axi_controller.reg_input_data\[24\] _2008_ VGND VGND VPWR VPWR _2010_ sky130_fd_sc_hd__or2_1
XFILLER_25_389 VGND VGND VPWR VPWR sky130_fd_sc_hd__decap_3
X_4909_ net360 _0039_ VGND VGND VPWR VPWR cordic_inst.deg_handler_inst.theta_abs\[9\]
+ sky130_fd_sc_hd__dfxtp_1
XFILLER_0_433 VPWR VGND VPWR VGND sky130_ef_sc_hd__decap_12
XFILLER_0_477 VPWR VGND VPWR VGND sky130_ef_sc_hd__decap_12
XFILLER_29_52 VGND VGND VPWR VPWR sky130_fd_sc_hd__decap_4
XFILLER_29_662 VGND VGND VPWR VPWR sky130_fd_sc_hd__decap_8
XFILLER_29_673 VPWR VGND VPWR VGND sky130_ef_sc_hd__decap_12
XFILLER_28_161 VGND VGND VPWR VPWR sky130_fd_sc_hd__fill_1
XFILLER_44_676 VPWR VGND VPWR VGND sky130_ef_sc_hd__decap_12
XFILLER_43_142 VGND VGND VPWR VPWR sky130_fd_sc_hd__fill_1
XFILLER_43_186 VGND VGND VPWR VPWR sky130_fd_sc_hd__fill_1
XFILLER_43_197 VGND VGND VPWR VPWR sky130_fd_sc_hd__fill_1
XFILLER_4_761 VGND VGND VPWR VPWR sky130_fd_sc_hd__fill_1
X_3240_ net248 cordic_inst.cordic_inst.z\[24\] VGND VGND VPWR VPWR _1479_ sky130_fd_sc_hd__or2_1
X_3171_ net178 _1452_ _1453_ cordic_inst.cordic_inst.next_state\[1\] cordic_inst.cordic_inst.x\[11\]
+ VGND VGND VPWR VPWR _0509_ sky130_fd_sc_hd__o32a_1
XFILLER_19_183 VPWR VGND VPWR VGND sky130_ef_sc_hd__decap_12
XFILLER_35_687 VGND VGND VPWR VPWR sky130_fd_sc_hd__fill_1
XTAP_TAPCELL_ROW_17_373 VGND VPWR sky130_fd_sc_hd__tapvpwrvgnd_1
XFILLER_34_197 VGND VGND VPWR VPWR sky130_fd_sc_hd__decap_8
X_2955_ _1257_ VGND VGND VPWR VPWR _1258_ sky130_fd_sc_hd__inv_2
X_2886_ _1180_ _1188_ VGND VGND VPWR VPWR _1189_ sky130_fd_sc_hd__or2_1
XFILLER_30_392 VGND VGND VPWR VPWR sky130_fd_sc_hd__fill_1
X_4625_ net398 _0356_ net339 VGND VGND VPWR VPWR axi_controller.result_out\[2\] sky130_fd_sc_hd__dfrtp_1
X_4556_ net355 _0288_ VGND VGND VPWR VPWR axi_controller.read_addr_reg\[22\] sky130_fd_sc_hd__dfxtp_1
X_3507_ _1535_ _1625_ _1626_ VGND VGND VPWR VPWR _1727_ sky130_fd_sc_hd__and3_1
X_4487_ net329 VGND VGND VPWR VPWR _0226_ sky130_fd_sc_hd__inv_2
X_3438_ _1475_ _1674_ VGND VGND VPWR VPWR _1675_ sky130_fd_sc_hd__xnor2_1
X_3369_ _1568_ _1606_ _1563_ VGND VGND VPWR VPWR _1608_ sky130_fd_sc_hd__o21ba_1
XFILLER_17_109 VGND VGND VPWR VPWR sky130_fd_sc_hd__decap_3
XFILLER_26_632 VGND VGND VPWR VPWR sky130_fd_sc_hd__decap_6
XFILLER_15_32 VPWR VGND VPWR VGND sky130_ef_sc_hd__decap_12
XFILLER_26_676 VGND VGND VPWR VPWR sky130_fd_sc_hd__decap_8
XTAP_TAPCELL_ROW_36_660 VGND VPWR sky130_fd_sc_hd__tapvpwrvgnd_1
XFILLER_9_319 VGND VGND VPWR VPWR sky130_fd_sc_hd__fill_2